data_image0
_cell_length_a       27.3195
_cell_length_b       27.3195
_cell_length_c       27.3195
_cell_angle_alpha    90
_cell_angle_beta     90
_cell_angle_gamma    90

_symmetry_space_group_name_H-M    "P 1"
_symmetry_int_tables_number       1

loop_
  _symmetry_equiv_pos_as_xyz
  'x, y, z'

loop_
  _atom_site_label
  _atom_site_occupancy
  _atom_site_fract_x
  _atom_site_fract_y
  _atom_site_fract_z
  _atom_site_thermal_displace_type
  _atom_site_B_iso_or_equiv
  _atom_site_type_symbol
  Ce1      1.0000 0.59749  0.00000  0.50000  Biso   1.000  Ce
  O1       1.0000 0.63658  0.00000  0.57817  Biso   1.000  O
  O2       1.0000 0.54912  0.95088  0.45088  Biso   1.000  O
  C1       1.0000 0.62146  0.00000  0.62146  Biso   1.000  C
  C2       1.0000 0.66037  0.00000  0.66037  Biso   1.000  C
  C3       1.0000 0.70850  0.00000  0.64516  Biso   1.000  C
  N1       1.0000 0.74452  0.00000  0.68194  Biso   1.000  N
  C4       1.0000 0.73007  0.00000  0.73007  Biso   1.000  C
  O3       1.0000 0.57817  0.00000  0.63658  Biso   1.000  O
  C5       1.0000 0.64516  0.00000  0.70850  Biso   1.000  C
  N2       1.0000 0.68194  0.00000  0.74452  Biso   1.000  N
  O4       1.0000 0.86342  0.00000  0.92183  Biso   1.000  O
  C6       1.0000 0.87854  0.00000  0.87854  Biso   1.000  C
  C7       1.0000 0.83963  0.00000  0.83963  Biso   1.000  C
  C8       1.0000 0.79150  0.00000  0.85484  Biso   1.000  C
  N3       1.0000 0.75548  0.00000  0.81806  Biso   1.000  N
  C9       1.0000 0.76993  0.00000  0.76993  Biso   1.000  C
  O5       1.0000 0.92183  0.00000  0.86342  Biso   1.000  O
  C10      1.0000 0.85484  0.00000  0.79150  Biso   1.000  C
  N4       1.0000 0.81806  0.00000  0.75548  Biso   1.000  N
  Ce2      1.0000 0.50000  0.00000  0.40251  Biso   1.000  Ce
  O6       1.0000 0.42183  0.00000  0.36342  Biso   1.000  O
  O7       1.0000 0.54912  0.04912  0.45088  Biso   1.000  O
  C11      1.0000 0.37854  0.00000  0.37854  Biso   1.000  C
  C12      1.0000 0.33963  0.00000  0.33963  Biso   1.000  C
  C13      1.0000 0.35484  0.00000  0.29150  Biso   1.000  C
  N5       1.0000 0.31806  0.00000  0.25548  Biso   1.000  N
  C14      1.0000 0.26993  0.00000  0.26993  Biso   1.000  C
  O8       1.0000 0.36342  0.00000  0.42183  Biso   1.000  O
  C15      1.0000 0.29150  0.00000  0.35484  Biso   1.000  C
  N6       1.0000 0.25548  0.00000  0.31806  Biso   1.000  N
  O9       1.0000 0.07817  0.00000  0.13658  Biso   1.000  O
  C16      1.0000 0.12146  0.00000  0.12146  Biso   1.000  C
  C17      1.0000 0.16037  0.00000  0.16037  Biso   1.000  C
  C18      1.0000 0.14516  0.00000  0.20850  Biso   1.000  C
  N7       1.0000 0.18194  0.00000  0.24452  Biso   1.000  N
  C19      1.0000 0.23007  0.00000  0.23007  Biso   1.000  C
  O10      1.0000 0.13658  0.00000  0.07817  Biso   1.000  O
  C20      1.0000 0.20850  0.00000  0.14516  Biso   1.000  C
  N8       1.0000 0.24452  0.00000  0.18194  Biso   1.000  N
  Ce3      1.0000 0.50000  0.00000  0.59749  Biso   1.000  Ce
  O11      1.0000 0.42183  0.00000  0.63658  Biso   1.000  O
  O12      1.0000 0.54912  0.04912  0.54912  Biso   1.000  O
  C21      1.0000 0.37854  0.00000  0.62146  Biso   1.000  C
  C22      1.0000 0.33963  0.00000  0.66037  Biso   1.000  C
  C23      1.0000 0.35484  0.00000  0.70850  Biso   1.000  C
  N9       1.0000 0.31806  0.00000  0.74452  Biso   1.000  N
  C24      1.0000 0.26993  0.00000  0.73007  Biso   1.000  C
  O13      1.0000 0.36342  0.00000  0.57817  Biso   1.000  O
  C25      1.0000 0.29150  0.00000  0.64516  Biso   1.000  C
  N10      1.0000 0.25548  0.00000  0.68194  Biso   1.000  N
  O14      1.0000 0.07817  0.00000  0.86342  Biso   1.000  O
  C26      1.0000 0.12146  0.00000  0.87854  Biso   1.000  C
  C27      1.0000 0.16037  0.00000  0.83963  Biso   1.000  C
  C28      1.0000 0.14516  0.00000  0.79150  Biso   1.000  C
  N11      1.0000 0.18194  0.00000  0.75548  Biso   1.000  N
  C29      1.0000 0.23007  0.00000  0.76993  Biso   1.000  C
  O15      1.0000 0.13658  0.00000  0.92183  Biso   1.000  O
  C30      1.0000 0.20850  0.00000  0.85484  Biso   1.000  C
  N12      1.0000 0.24452  0.00000  0.81806  Biso   1.000  N
  O16      1.0000 0.54912  0.95088  0.54912  Biso   1.000  O
  Ce4      1.0000 0.40251  0.00000  0.50000  Biso   1.000  Ce
  Ce5      1.0000 0.90251  0.00000  0.00000  Biso   1.000  Ce
  Ce6      1.0000 0.50000  0.90251  0.50000  Biso   1.000  Ce
  Ce7      1.0000 0.50000  0.09749  0.50000  Biso   1.000  Ce
  Ce8      1.0000 0.09749  0.00000  0.00000  Biso   1.000  Ce
  Ce9      1.0000 0.00000  0.00000  0.90251  Biso   1.000  Ce
  Ce10     1.0000 0.00000  0.00000  0.09749  Biso   1.000  Ce
  O17      1.0000 0.57817  0.00000  0.36342  Biso   1.000  O
  O18      1.0000 0.63658  0.00000  0.42183  Biso   1.000  O
  O19      1.0000 0.50000  0.92183  0.36342  Biso   1.000  O
  O20      1.0000 0.50000  0.92183  0.63658  Biso   1.000  O
  O21      1.0000 0.50000  0.07817  0.36342  Biso   1.000  O
  O22      1.0000 0.50000  0.07817  0.63658  Biso   1.000  O
  O23      1.0000 0.63658  0.92183  0.50000  Biso   1.000  O
  O24      1.0000 0.63658  0.07817  0.50000  Biso   1.000  O
  O25      1.0000 0.45088  0.04912  0.54912  Biso   1.000  O
  O26      1.0000 0.45088  0.04912  0.45088  Biso   1.000  O
  O27      1.0000 0.45088  0.95088  0.54912  Biso   1.000  O
  O28      1.0000 0.45088  0.95088  0.45088  Biso   1.000  O
  H1       1.0000 0.21941  0.00000  0.32695  Biso   1.000  H
  H2       1.0000 0.28322  0.00000  0.17240  Biso   1.000  H
  H3       1.0000 0.32695  0.00000  0.78059  Biso   1.000  H
  H4       1.0000 0.67305  0.00000  0.78059  Biso   1.000  H
  H5       1.0000 0.21941  0.00000  0.67305  Biso   1.000  H
  H6       1.0000 0.17643  0.03255  0.26687  Biso   1.000  H
  H7       1.0000 0.17643  0.96745  0.26687  Biso   1.000  H
  H8       1.0000 0.21678  0.00000  0.67240  Biso   1.000  H
  H9       1.0000 0.32357  0.03255  0.23314  Biso   1.000  H
  H10      1.0000 0.32357  0.96745  0.23314  Biso   1.000  H
  H11      1.0000 0.71941  0.00000  0.82695  Biso   1.000  H
  H12      1.0000 0.71678  0.00000  0.82760  Biso   1.000  H
  H13      1.0000 0.28059  0.00000  0.17305  Biso   1.000  H
  H14      1.0000 0.67240  0.00000  0.78322  Biso   1.000  H
  H15      1.0000 0.21678  0.00000  0.32760  Biso   1.000  H
  H16      1.0000 0.17305  0.00000  0.71941  Biso   1.000  H
  H17      1.0000 0.82357  0.96745  0.73313  Biso   1.000  H
  H18      1.0000 0.82357  0.03255  0.73313  Biso   1.000  H
  H19      1.0000 0.32357  0.96745  0.76687  Biso   1.000  H
  H20      1.0000 0.32357  0.03255  0.76687  Biso   1.000  H
  H21      1.0000 0.17240  0.00000  0.71678  Biso   1.000  H
  H22      1.0000 0.76687  0.96745  0.67643  Biso   1.000  H
  H23      1.0000 0.76687  0.03255  0.67643  Biso   1.000  H
  H24      1.0000 0.28059  0.00000  0.82695  Biso   1.000  H
  H25      1.0000 0.26687  0.96745  0.82357  Biso   1.000  H
  H26      1.0000 0.26687  0.03255  0.82357  Biso   1.000  H
  H27      1.0000 0.82695  0.00000  0.71941  Biso   1.000  H
  H28      1.0000 0.32695  0.00000  0.21941  Biso   1.000  H
  H29      1.0000 0.78059  0.00000  0.67305  Biso   1.000  H
  H30      1.0000 0.17305  0.00000  0.28059  Biso   1.000  H
  C31      1.0000 0.62146  0.00000  0.37854  Biso   1.000  C
  C32      1.0000 0.66037  0.00000  0.33963  Biso   1.000  C
  C33      1.0000 0.70850  0.00000  0.35484  Biso   1.000  C
  N13      1.0000 0.74452  0.00000  0.31806  Biso   1.000  N
  C34      1.0000 0.73007  0.00000  0.26993  Biso   1.000  C
  C35      1.0000 0.64516  0.00000  0.29150  Biso   1.000  C
  N14      1.0000 0.68194  0.00000  0.25548  Biso   1.000  N
  O29      1.0000 0.86342  0.00000  0.07817  Biso   1.000  O
  C36      1.0000 0.87854  0.00000  0.12146  Biso   1.000  C
  C37      1.0000 0.83963  0.00000  0.16037  Biso   1.000  C
  C38      1.0000 0.79150  0.00000  0.14516  Biso   1.000  C
  N15      1.0000 0.75548  0.00000  0.18194  Biso   1.000  N
  C39      1.0000 0.76993  0.00000  0.23007  Biso   1.000  C
  O30      1.0000 0.92183  0.00000  0.13658  Biso   1.000  O
  C40      1.0000 0.85484  0.00000  0.20850  Biso   1.000  C
  N16      1.0000 0.81806  0.00000  0.24452  Biso   1.000  N
  H31      1.0000 0.28322  0.00000  0.82760  Biso   1.000  H
  H32      1.0000 0.67305  0.00000  0.21941  Biso   1.000  H
  H33      1.0000 0.17643  0.03255  0.73313  Biso   1.000  H
  H34      1.0000 0.17643  0.96745  0.73313  Biso   1.000  H
  H35      1.0000 0.71941  0.00000  0.17305  Biso   1.000  H
  H36      1.0000 0.71678  0.00000  0.17240  Biso   1.000  H
  H37      1.0000 0.67240  0.00000  0.21678  Biso   1.000  H
  H38      1.0000 0.82357  0.96745  0.26687  Biso   1.000  H
  H39      1.0000 0.82357  0.03255  0.26687  Biso   1.000  H
  H40      1.0000 0.17240  0.00000  0.28322  Biso   1.000  H
  H41      1.0000 0.76687  0.96745  0.32357  Biso   1.000  H
  H42      1.0000 0.76687  0.03255  0.32357  Biso   1.000  H
  H43      1.0000 0.26687  0.96745  0.17643  Biso   1.000  H
  H44      1.0000 0.26687  0.03255  0.17643  Biso   1.000  H
  H45      1.0000 0.82695  0.00000  0.28059  Biso   1.000  H
  H46      1.0000 0.78059  0.00000  0.32695  Biso   1.000  H
  Ce11     1.0000 0.59749  0.50000  0.00000  Biso   1.000  Ce
  O31      1.0000 0.63658  0.57817  0.00000  Biso   1.000  O
  O32      1.0000 0.54912  0.45088  0.95088  Biso   1.000  O
  C41      1.0000 0.62146  0.62146  0.00000  Biso   1.000  C
  C42      1.0000 0.66037  0.66037  0.00000  Biso   1.000  C
  C43      1.0000 0.70850  0.64516  0.00000  Biso   1.000  C
  N17      1.0000 0.74452  0.68194  0.00000  Biso   1.000  N
  C44      1.0000 0.73007  0.73007  0.00000  Biso   1.000  C
  O33      1.0000 0.57817  0.63658  0.00000  Biso   1.000  O
  C45      1.0000 0.64516  0.70850  0.00000  Biso   1.000  C
  N18      1.0000 0.68194  0.74452  0.00000  Biso   1.000  N
  O34      1.0000 0.86342  0.92183  0.00000  Biso   1.000  O
  C46      1.0000 0.87854  0.87854  0.00000  Biso   1.000  C
  C47      1.0000 0.83963  0.83963  0.00000  Biso   1.000  C
  C48      1.0000 0.79150  0.85484  0.00000  Biso   1.000  C
  N19      1.0000 0.75548  0.81806  0.00000  Biso   1.000  N
  C49      1.0000 0.76993  0.76993  0.00000  Biso   1.000  C
  O35      1.0000 0.92183  0.86342  0.00000  Biso   1.000  O
  C50      1.0000 0.85484  0.79150  0.00000  Biso   1.000  C
  N20      1.0000 0.81806  0.75548  0.00000  Biso   1.000  N
  Ce12     1.0000 0.50000  0.40251  0.00000  Biso   1.000  Ce
  O36      1.0000 0.42183  0.36342  0.00000  Biso   1.000  O
  O37      1.0000 0.54912  0.45088  0.04912  Biso   1.000  O
  C51      1.0000 0.37854  0.37854  0.00000  Biso   1.000  C
  C52      1.0000 0.33963  0.33963  0.00000  Biso   1.000  C
  C53      1.0000 0.35484  0.29150  0.00000  Biso   1.000  C
  N21      1.0000 0.31806  0.25548  0.00000  Biso   1.000  N
  C54      1.0000 0.26993  0.26993  0.00000  Biso   1.000  C
  O38      1.0000 0.36342  0.42183  0.00000  Biso   1.000  O
  C55      1.0000 0.29150  0.35484  0.00000  Biso   1.000  C
  N22      1.0000 0.25548  0.31806  0.00000  Biso   1.000  N
  O39      1.0000 0.07817  0.13658  0.00000  Biso   1.000  O
  C56      1.0000 0.12146  0.12146  0.00000  Biso   1.000  C
  C57      1.0000 0.16037  0.16037  0.00000  Biso   1.000  C
  C58      1.0000 0.14516  0.20850  0.00000  Biso   1.000  C
  N23      1.0000 0.18194  0.24452  0.00000  Biso   1.000  N
  C59      1.0000 0.23007  0.23007  0.00000  Biso   1.000  C
  O40      1.0000 0.13658  0.07817  0.00000  Biso   1.000  O
  C60      1.0000 0.20850  0.14516  0.00000  Biso   1.000  C
  N24      1.0000 0.24452  0.18194  0.00000  Biso   1.000  N
  Ce13     1.0000 0.50000  0.59749  0.00000  Biso   1.000  Ce
  O41      1.0000 0.42183  0.63658  0.00000  Biso   1.000  O
  O42      1.0000 0.54912  0.54912  0.04912  Biso   1.000  O
  C61      1.0000 0.37854  0.62146  0.00000  Biso   1.000  C
  C62      1.0000 0.33963  0.66037  0.00000  Biso   1.000  C
  C63      1.0000 0.35484  0.70850  0.00000  Biso   1.000  C
  N25      1.0000 0.31806  0.74452  0.00000  Biso   1.000  N
  C64      1.0000 0.26993  0.73007  0.00000  Biso   1.000  C
  O43      1.0000 0.36342  0.57817  0.00000  Biso   1.000  O
  C65      1.0000 0.29150  0.64516  0.00000  Biso   1.000  C
  N26      1.0000 0.25548  0.68194  0.00000  Biso   1.000  N
  O44      1.0000 0.07817  0.86342  0.00000  Biso   1.000  O
  C66      1.0000 0.12146  0.87854  0.00000  Biso   1.000  C
  C67      1.0000 0.16037  0.83963  0.00000  Biso   1.000  C
  C68      1.0000 0.14516  0.79150  0.00000  Biso   1.000  C
  N27      1.0000 0.18194  0.75548  0.00000  Biso   1.000  N
  C69      1.0000 0.23007  0.76993  0.00000  Biso   1.000  C
  O45      1.0000 0.13658  0.92183  0.00000  Biso   1.000  O
  C70      1.0000 0.20850  0.85484  0.00000  Biso   1.000  C
  N28      1.0000 0.24452  0.81806  0.00000  Biso   1.000  N
  O46      1.0000 0.54912  0.54912  0.95088  Biso   1.000  O
  Ce14     1.0000 0.40251  0.50000  0.00000  Biso   1.000  Ce
  Ce15     1.0000 0.50000  0.50000  0.90251  Biso   1.000  Ce
  Ce16     1.0000 0.50000  0.50000  0.09749  Biso   1.000  Ce
  Ce17     1.0000 0.00000  0.90251  0.00000  Biso   1.000  Ce
  Ce18     1.0000 0.00000  0.09749  0.00000  Biso   1.000  Ce
  O47      1.0000 0.57817  0.36342  0.00000  Biso   1.000  O
  O48      1.0000 0.63658  0.42183  0.00000  Biso   1.000  O
  O49      1.0000 0.50000  0.36342  0.92183  Biso   1.000  O
  O50      1.0000 0.50000  0.63658  0.92183  Biso   1.000  O
  O51      1.0000 0.50000  0.36342  0.07817  Biso   1.000  O
  O52      1.0000 0.50000  0.63658  0.07817  Biso   1.000  O
  O53      1.0000 0.63658  0.50000  0.92183  Biso   1.000  O
  O54      1.0000 0.63658  0.50000  0.07817  Biso   1.000  O
  O55      1.0000 0.45088  0.54912  0.04912  Biso   1.000  O
  O56      1.0000 0.45088  0.45088  0.04912  Biso   1.000  O
  O57      1.0000 0.45088  0.54912  0.95088  Biso   1.000  O
  O58      1.0000 0.45088  0.45088  0.95088  Biso   1.000  O
  H47      1.0000 0.21941  0.32695  0.00000  Biso   1.000  H
  H48      1.0000 0.28322  0.17240  0.00000  Biso   1.000  H
  H49      1.0000 0.32695  0.78059  0.00000  Biso   1.000  H
  H50      1.0000 0.67305  0.78059  0.00000  Biso   1.000  H
  H51      1.0000 0.21941  0.67305  0.00000  Biso   1.000  H
  H52      1.0000 0.17643  0.26687  0.03255  Biso   1.000  H
  H53      1.0000 0.17643  0.26687  0.96745  Biso   1.000  H
  H54      1.0000 0.21678  0.67240  0.00000  Biso   1.000  H
  H55      1.0000 0.32357  0.23314  0.03255  Biso   1.000  H
  H56      1.0000 0.32357  0.23314  0.96745  Biso   1.000  H
  H57      1.0000 0.71941  0.82695  0.00000  Biso   1.000  H
  H58      1.0000 0.71678  0.82760  0.00000  Biso   1.000  H
  H59      1.0000 0.28059  0.17305  0.00000  Biso   1.000  H
  H60      1.0000 0.67240  0.78322  0.00000  Biso   1.000  H
  H61      1.0000 0.21678  0.32760  0.00000  Biso   1.000  H
  H62      1.0000 0.17305  0.71941  0.00000  Biso   1.000  H
  H63      1.0000 0.82357  0.73313  0.96745  Biso   1.000  H
  H64      1.0000 0.82357  0.73313  0.03255  Biso   1.000  H
  H65      1.0000 0.32357  0.76687  0.96745  Biso   1.000  H
  H66      1.0000 0.32357  0.76687  0.03255  Biso   1.000  H
  H67      1.0000 0.17240  0.71678  0.00000  Biso   1.000  H
  H68      1.0000 0.76687  0.67643  0.96745  Biso   1.000  H
  H69      1.0000 0.76687  0.67643  0.03255  Biso   1.000  H
  H70      1.0000 0.28059  0.82695  0.00000  Biso   1.000  H
  H71      1.0000 0.26687  0.82357  0.96745  Biso   1.000  H
  H72      1.0000 0.26687  0.82357  0.03255  Biso   1.000  H
  H73      1.0000 0.82695  0.71941  0.00000  Biso   1.000  H
  H74      1.0000 0.32695  0.21941  0.00000  Biso   1.000  H
  H75      1.0000 0.78059  0.67305  0.00000  Biso   1.000  H
  H76      1.0000 0.17305  0.28059  0.00000  Biso   1.000  H
  C71      1.0000 0.62146  0.37854  0.00000  Biso   1.000  C
  C72      1.0000 0.66037  0.33963  0.00000  Biso   1.000  C
  C73      1.0000 0.70850  0.35484  0.00000  Biso   1.000  C
  N29      1.0000 0.74452  0.31806  0.00000  Biso   1.000  N
  C74      1.0000 0.73007  0.26993  0.00000  Biso   1.000  C
  C75      1.0000 0.64516  0.29150  0.00000  Biso   1.000  C
  N30      1.0000 0.68194  0.25548  0.00000  Biso   1.000  N
  O59      1.0000 0.86342  0.07817  0.00000  Biso   1.000  O
  C76      1.0000 0.87854  0.12146  0.00000  Biso   1.000  C
  C77      1.0000 0.83963  0.16037  0.00000  Biso   1.000  C
  C78      1.0000 0.79150  0.14516  0.00000  Biso   1.000  C
  N31      1.0000 0.75548  0.18194  0.00000  Biso   1.000  N
  C79      1.0000 0.76993  0.23007  0.00000  Biso   1.000  C
  O60      1.0000 0.92183  0.13658  0.00000  Biso   1.000  O
  C80      1.0000 0.85484  0.20850  0.00000  Biso   1.000  C
  N32      1.0000 0.81806  0.24452  0.00000  Biso   1.000  N
  H77      1.0000 0.28322  0.82760  0.00000  Biso   1.000  H
  H78      1.0000 0.67305  0.21941  0.00000  Biso   1.000  H
  H79      1.0000 0.17643  0.73313  0.03255  Biso   1.000  H
  H80      1.0000 0.17643  0.73313  0.96745  Biso   1.000  H
  H81      1.0000 0.71941  0.17305  0.00000  Biso   1.000  H
  H82      1.0000 0.71678  0.17240  0.00000  Biso   1.000  H
  H83      1.0000 0.67240  0.21678  0.00000  Biso   1.000  H
  H84      1.0000 0.82357  0.26687  0.96745  Biso   1.000  H
  H85      1.0000 0.82357  0.26687  0.03255  Biso   1.000  H
  H86      1.0000 0.17240  0.28322  0.00000  Biso   1.000  H
  H87      1.0000 0.76687  0.32357  0.96745  Biso   1.000  H
  H88      1.0000 0.76687  0.32357  0.03255  Biso   1.000  H
  H89      1.0000 0.26687  0.17643  0.96745  Biso   1.000  H
  H90      1.0000 0.26687  0.17643  0.03255  Biso   1.000  H
  H91      1.0000 0.82695  0.28059  0.00000  Biso   1.000  H
  H92      1.0000 0.78059  0.32695  0.00000  Biso   1.000  H
  Ce19     1.0000 0.00000  0.59749  0.50000  Biso   1.000  Ce
  O61      1.0000 0.00000  0.63658  0.57817  Biso   1.000  O
  O62      1.0000 0.95088  0.54912  0.45088  Biso   1.000  O
  C81      1.0000 0.00000  0.62146  0.62146  Biso   1.000  C
  C82      1.0000 0.00000  0.66037  0.66037  Biso   1.000  C
  C83      1.0000 0.00000  0.70850  0.64516  Biso   1.000  C
  N33      1.0000 0.00000  0.74452  0.68194  Biso   1.000  N
  C84      1.0000 0.00000  0.73007  0.73007  Biso   1.000  C
  O63      1.0000 0.00000  0.57817  0.63658  Biso   1.000  O
  C85      1.0000 0.00000  0.64516  0.70850  Biso   1.000  C
  N34      1.0000 0.00000  0.68194  0.74452  Biso   1.000  N
  O64      1.0000 0.00000  0.86342  0.92183  Biso   1.000  O
  C86      1.0000 0.00000  0.87854  0.87854  Biso   1.000  C
  C87      1.0000 0.00000  0.83963  0.83963  Biso   1.000  C
  C88      1.0000 0.00000  0.79150  0.85484  Biso   1.000  C
  N35      1.0000 0.00000  0.75548  0.81806  Biso   1.000  N
  C89      1.0000 0.00000  0.76993  0.76993  Biso   1.000  C
  O65      1.0000 0.00000  0.92183  0.86342  Biso   1.000  O
  C90      1.0000 0.00000  0.85484  0.79150  Biso   1.000  C
  N36      1.0000 0.00000  0.81806  0.75548  Biso   1.000  N
  Ce20     1.0000 0.00000  0.50000  0.40251  Biso   1.000  Ce
  O66      1.0000 0.00000  0.42183  0.36342  Biso   1.000  O
  O67      1.0000 0.04912  0.54912  0.45088  Biso   1.000  O
  C91      1.0000 0.00000  0.37854  0.37854  Biso   1.000  C
  C92      1.0000 0.00000  0.33963  0.33963  Biso   1.000  C
  C93      1.0000 0.00000  0.35484  0.29150  Biso   1.000  C
  N37      1.0000 0.00000  0.31806  0.25548  Biso   1.000  N
  C94      1.0000 0.00000  0.26993  0.26993  Biso   1.000  C
  O68      1.0000 0.00000  0.36342  0.42183  Biso   1.000  O
  C95      1.0000 0.00000  0.29150  0.35484  Biso   1.000  C
  N38      1.0000 0.00000  0.25548  0.31806  Biso   1.000  N
  O69      1.0000 0.00000  0.07817  0.13658  Biso   1.000  O
  C96      1.0000 0.00000  0.12146  0.12146  Biso   1.000  C
  C97      1.0000 0.00000  0.16037  0.16037  Biso   1.000  C
  C98      1.0000 0.00000  0.14516  0.20850  Biso   1.000  C
  N39      1.0000 0.00000  0.18194  0.24452  Biso   1.000  N
  C99      1.0000 0.00000  0.23007  0.23007  Biso   1.000  C
  O70      1.0000 0.00000  0.13658  0.07817  Biso   1.000  O
  C100     1.0000 0.00000  0.20850  0.14516  Biso   1.000  C
  N40      1.0000 0.00000  0.24452  0.18194  Biso   1.000  N
  Ce21     1.0000 0.00000  0.50000  0.59749  Biso   1.000  Ce
  O71      1.0000 0.00000  0.42183  0.63658  Biso   1.000  O
  O72      1.0000 0.04912  0.54912  0.54912  Biso   1.000  O
  C101     1.0000 0.00000  0.37854  0.62146  Biso   1.000  C
  C102     1.0000 0.00000  0.33963  0.66037  Biso   1.000  C
  C103     1.0000 0.00000  0.35484  0.70850  Biso   1.000  C
  N41      1.0000 0.00000  0.31806  0.74452  Biso   1.000  N
  C104     1.0000 0.00000  0.26993  0.73007  Biso   1.000  C
  O73      1.0000 0.00000  0.36342  0.57817  Biso   1.000  O
  C105     1.0000 0.00000  0.29150  0.64516  Biso   1.000  C
  N42      1.0000 0.00000  0.25548  0.68194  Biso   1.000  N
  O74      1.0000 0.00000  0.07817  0.86342  Biso   1.000  O
  C106     1.0000 0.00000  0.12146  0.87854  Biso   1.000  C
  C107     1.0000 0.00000  0.16037  0.83963  Biso   1.000  C
  C108     1.0000 0.00000  0.14516  0.79150  Biso   1.000  C
  N43      1.0000 0.00000  0.18194  0.75548  Biso   1.000  N
  C109     1.0000 0.00000  0.23007  0.76993  Biso   1.000  C
  O75      1.0000 0.00000  0.13658  0.92183  Biso   1.000  O
  C110     1.0000 0.00000  0.20850  0.85484  Biso   1.000  C
  N44      1.0000 0.00000  0.24452  0.81806  Biso   1.000  N
  O76      1.0000 0.95088  0.54912  0.54912  Biso   1.000  O
  Ce22     1.0000 0.00000  0.40251  0.50000  Biso   1.000  Ce
  Ce23     1.0000 0.90251  0.50000  0.50000  Biso   1.000  Ce
  Ce24     1.0000 0.09749  0.50000  0.50000  Biso   1.000  Ce
  O77      1.0000 0.00000  0.57817  0.36342  Biso   1.000  O
  O78      1.0000 0.00000  0.63658  0.42183  Biso   1.000  O
  O79      1.0000 0.92183  0.50000  0.36342  Biso   1.000  O
  O80      1.0000 0.92183  0.50000  0.63658  Biso   1.000  O
  O81      1.0000 0.07817  0.50000  0.36342  Biso   1.000  O
  O82      1.0000 0.07817  0.50000  0.63658  Biso   1.000  O
  O83      1.0000 0.92183  0.63658  0.50000  Biso   1.000  O
  O84      1.0000 0.07817  0.63658  0.50000  Biso   1.000  O
  O85      1.0000 0.04912  0.45088  0.54912  Biso   1.000  O
  O86      1.0000 0.04912  0.45088  0.45088  Biso   1.000  O
  O87      1.0000 0.95088  0.45088  0.54912  Biso   1.000  O
  O88      1.0000 0.95088  0.45088  0.45088  Biso   1.000  O
  H93      1.0000 0.00000  0.21941  0.32695  Biso   1.000  H
  H94      1.0000 0.00000  0.28322  0.17240  Biso   1.000  H
  H95      1.0000 0.00000  0.32695  0.78059  Biso   1.000  H
  H96      1.0000 0.00000  0.67305  0.78059  Biso   1.000  H
  H97      1.0000 0.00000  0.21941  0.67305  Biso   1.000  H
  H98      1.0000 0.03255  0.17643  0.26687  Biso   1.000  H
  H99      1.0000 0.96745  0.17643  0.26687  Biso   1.000  H
  H100     1.0000 0.00000  0.21678  0.67240  Biso   1.000  H
  H101     1.0000 0.03255  0.32357  0.23314  Biso   1.000  H
  H102     1.0000 0.96745  0.32357  0.23314  Biso   1.000  H
  H103     1.0000 0.00000  0.71941  0.82695  Biso   1.000  H
  H104     1.0000 0.00000  0.71678  0.82760  Biso   1.000  H
  H105     1.0000 0.00000  0.28059  0.17305  Biso   1.000  H
  H106     1.0000 0.00000  0.67240  0.78322  Biso   1.000  H
  H107     1.0000 0.00000  0.21678  0.32760  Biso   1.000  H
  H108     1.0000 0.00000  0.17305  0.71941  Biso   1.000  H
  H109     1.0000 0.96745  0.82357  0.73313  Biso   1.000  H
  H110     1.0000 0.03255  0.82357  0.73313  Biso   1.000  H
  H111     1.0000 0.96745  0.32357  0.76687  Biso   1.000  H
  H112     1.0000 0.03255  0.32357  0.76687  Biso   1.000  H
  H113     1.0000 0.00000  0.17240  0.71678  Biso   1.000  H
  H114     1.0000 0.96745  0.76687  0.67643  Biso   1.000  H
  H115     1.0000 0.03255  0.76687  0.67643  Biso   1.000  H
  H116     1.0000 0.00000  0.28059  0.82695  Biso   1.000  H
  H117     1.0000 0.96745  0.26687  0.82357  Biso   1.000  H
  H118     1.0000 0.03255  0.26687  0.82357  Biso   1.000  H
  H119     1.0000 0.00000  0.82695  0.71941  Biso   1.000  H
  H120     1.0000 0.00000  0.32695  0.21941  Biso   1.000  H
  H121     1.0000 0.00000  0.78059  0.67305  Biso   1.000  H
  H122     1.0000 0.00000  0.17305  0.28059  Biso   1.000  H
  C111     1.0000 0.00000  0.62146  0.37854  Biso   1.000  C
  C112     1.0000 0.00000  0.66037  0.33963  Biso   1.000  C
  C113     1.0000 0.00000  0.70850  0.35484  Biso   1.000  C
  N45      1.0000 0.00000  0.74452  0.31806  Biso   1.000  N
  C114     1.0000 0.00000  0.73007  0.26993  Biso   1.000  C
  C115     1.0000 0.00000  0.64516  0.29150  Biso   1.000  C
  N46      1.0000 0.00000  0.68194  0.25548  Biso   1.000  N
  O89      1.0000 0.00000  0.86342  0.07817  Biso   1.000  O
  C116     1.0000 0.00000  0.87854  0.12146  Biso   1.000  C
  C117     1.0000 0.00000  0.83963  0.16037  Biso   1.000  C
  C118     1.0000 0.00000  0.79150  0.14516  Biso   1.000  C
  N47      1.0000 0.00000  0.75548  0.18194  Biso   1.000  N
  C119     1.0000 0.00000  0.76993  0.23007  Biso   1.000  C
  O90      1.0000 0.00000  0.92183  0.13658  Biso   1.000  O
  C120     1.0000 0.00000  0.85484  0.20850  Biso   1.000  C
  N48      1.0000 0.00000  0.81806  0.24452  Biso   1.000  N
  H123     1.0000 0.00000  0.28322  0.82760  Biso   1.000  H
  H124     1.0000 0.00000  0.67305  0.21941  Biso   1.000  H
  H125     1.0000 0.03255  0.17643  0.73313  Biso   1.000  H
  H126     1.0000 0.96745  0.17643  0.73313  Biso   1.000  H
  H127     1.0000 0.00000  0.71941  0.17305  Biso   1.000  H
  H128     1.0000 0.00000  0.71678  0.17240  Biso   1.000  H
  H129     1.0000 0.00000  0.67240  0.21678  Biso   1.000  H
  H130     1.0000 0.96745  0.82357  0.26687  Biso   1.000  H
  H131     1.0000 0.03255  0.82357  0.26687  Biso   1.000  H
  H132     1.0000 0.00000  0.17240  0.28322  Biso   1.000  H
  H133     1.0000 0.96745  0.76687  0.32357  Biso   1.000  H
  H134     1.0000 0.03255  0.76687  0.32357  Biso   1.000  H
  H135     1.0000 0.96745  0.26687  0.17643  Biso   1.000  H
  H136     1.0000 0.03255  0.26687  0.17643  Biso   1.000  H
  H137     1.0000 0.00000  0.82695  0.28059  Biso   1.000  H
  H138     1.0000 0.00000  0.78059  0.32695  Biso   1.000  H
  O91      1.0000 0.92183  0.36342  0.50000  Biso   1.000  O
  O92      1.0000 0.07817  0.36342  0.50000  Biso   1.000  O
  H139     1.0000 0.03255  0.23314  0.32357  Biso   1.000  H
  H140     1.0000 0.96745  0.23314  0.32357  Biso   1.000  H
  H141     1.0000 0.00000  0.82760  0.71678  Biso   1.000  H
  H142     1.0000 0.00000  0.78322  0.67240  Biso   1.000  H
  H143     1.0000 0.00000  0.32760  0.21678  Biso   1.000  H
  H144     1.0000 0.96745  0.73313  0.82357  Biso   1.000  H
  H145     1.0000 0.03255  0.73313  0.82357  Biso   1.000  H
  H146     1.0000 0.96745  0.67643  0.76687  Biso   1.000  H
  H147     1.0000 0.03255  0.67643  0.76687  Biso   1.000  H
  H148     1.0000 0.03255  0.23314  0.67643  Biso   1.000  H
  H149     1.0000 0.96745  0.23314  0.67643  Biso   1.000  H
  H150     1.0000 0.00000  0.82760  0.28322  Biso   1.000  H
  H151     1.0000 0.00000  0.78322  0.32760  Biso   1.000  H
  H152     1.0000 0.00000  0.32760  0.78322  Biso   1.000  H
  H153     1.0000 0.96745  0.73313  0.17643  Biso   1.000  H
  H154     1.0000 0.03255  0.73313  0.17643  Biso   1.000  H
  H155     1.0000 0.96745  0.67643  0.23314  Biso   1.000  H
  H156     1.0000 0.03255  0.67643  0.23314  Biso   1.000  H
  O93      1.0000 0.36342  0.50000  0.92183  Biso   1.000  O
  O94      1.0000 0.36342  0.50000  0.07817  Biso   1.000  O
  H157     1.0000 0.23314  0.32357  0.03255  Biso   1.000  H
  H158     1.0000 0.23314  0.32357  0.96745  Biso   1.000  H
  H159     1.0000 0.82760  0.71678  0.00000  Biso   1.000  H
  H160     1.0000 0.78322  0.67240  0.00000  Biso   1.000  H
  H161     1.0000 0.32760  0.21678  0.00000  Biso   1.000  H
  H162     1.0000 0.73313  0.82357  0.96745  Biso   1.000  H
  H163     1.0000 0.73313  0.82357  0.03255  Biso   1.000  H
  H164     1.0000 0.67643  0.76687  0.96745  Biso   1.000  H
  H165     1.0000 0.67643  0.76687  0.03255  Biso   1.000  H
  O95      1.0000 0.36342  0.92183  0.50000  Biso   1.000  O
  O96      1.0000 0.36342  0.07817  0.50000  Biso   1.000  O
  H166     1.0000 0.23314  0.03255  0.32357  Biso   1.000  H
  H167     1.0000 0.23314  0.96745  0.32357  Biso   1.000  H
  H168     1.0000 0.82760  0.00000  0.71678  Biso   1.000  H
  H169     1.0000 0.78322  0.00000  0.67240  Biso   1.000  H
  H170     1.0000 0.32760  0.00000  0.21678  Biso   1.000  H
  H171     1.0000 0.73313  0.96745  0.82357  Biso   1.000  H
  H172     1.0000 0.73313  0.03255  0.82357  Biso   1.000  H
  H173     1.0000 0.67643  0.96745  0.76687  Biso   1.000  H
  H174     1.0000 0.67643  0.03255  0.76687  Biso   1.000  H
  H175     1.0000 0.23314  0.03255  0.67643  Biso   1.000  H
  H176     1.0000 0.23314  0.96745  0.67643  Biso   1.000  H
  H177     1.0000 0.82760  0.00000  0.28322  Biso   1.000  H
  H178     1.0000 0.78322  0.00000  0.32760  Biso   1.000  H
  H179     1.0000 0.32760  0.00000  0.78322  Biso   1.000  H
  H180     1.0000 0.73313  0.96745  0.17643  Biso   1.000  H
  H181     1.0000 0.73313  0.03255  0.17643  Biso   1.000  H
  H182     1.0000 0.67643  0.96745  0.23314  Biso   1.000  H
  H183     1.0000 0.67643  0.03255  0.23314  Biso   1.000  H
  H184     1.0000 0.23314  0.67643  0.03255  Biso   1.000  H
  H185     1.0000 0.23314  0.67643  0.96745  Biso   1.000  H
  H186     1.0000 0.82760  0.28322  0.00000  Biso   1.000  H
  H187     1.0000 0.78322  0.32760  0.00000  Biso   1.000  H
  H188     1.0000 0.32760  0.78322  0.00000  Biso   1.000  H
  H189     1.0000 0.73313  0.17643  0.96745  Biso   1.000  H
  H190     1.0000 0.73313  0.17643  0.03255  Biso   1.000  H
  H191     1.0000 0.67643  0.23314  0.96745  Biso   1.000  H
  H192     1.0000 0.67643  0.23314  0.03255  Biso   1.000  H
  O97      1.0000 0.13658  0.50000  0.57817  Biso   1.000  O
  C121     1.0000 0.12146  0.50000  0.62146  Biso   1.000  C
  C122     1.0000 0.16037  0.50000  0.66037  Biso   1.000  C
  C123     1.0000 0.20850  0.50000  0.64516  Biso   1.000  C
  N49      1.0000 0.24452  0.50000  0.68194  Biso   1.000  N
  C124     1.0000 0.23007  0.50000  0.73007  Biso   1.000  C
  C125     1.0000 0.14516  0.50000  0.70850  Biso   1.000  C
  N50      1.0000 0.18194  0.50000  0.74452  Biso   1.000  N
  C126     1.0000 0.37854  0.50000  0.87854  Biso   1.000  C
  C127     1.0000 0.33963  0.50000  0.83963  Biso   1.000  C
  C128     1.0000 0.29150  0.50000  0.85484  Biso   1.000  C
  N51      1.0000 0.25548  0.50000  0.81806  Biso   1.000  N
  C129     1.0000 0.26993  0.50000  0.76993  Biso   1.000  C
  O98      1.0000 0.42183  0.50000  0.86342  Biso   1.000  O
  C130     1.0000 0.35484  0.50000  0.79150  Biso   1.000  C
  N52      1.0000 0.31806  0.50000  0.75548  Biso   1.000  N
  C131     1.0000 0.87854  0.50000  0.37854  Biso   1.000  C
  C132     1.0000 0.83963  0.50000  0.33963  Biso   1.000  C
  C133     1.0000 0.85484  0.50000  0.29150  Biso   1.000  C
  N53      1.0000 0.81806  0.50000  0.25548  Biso   1.000  N
  C134     1.0000 0.76993  0.50000  0.26993  Biso   1.000  C
  O99      1.0000 0.86342  0.50000  0.42183  Biso   1.000  O
  C135     1.0000 0.79150  0.50000  0.35484  Biso   1.000  C
  N54      1.0000 0.75548  0.50000  0.31806  Biso   1.000  N
  O100     1.0000 0.57817  0.50000  0.13658  Biso   1.000  O
  C136     1.0000 0.62146  0.50000  0.12146  Biso   1.000  C
  C137     1.0000 0.66037  0.50000  0.16037  Biso   1.000  C
  C138     1.0000 0.64516  0.50000  0.20850  Biso   1.000  C
  N55      1.0000 0.68194  0.50000  0.24452  Biso   1.000  N
  C139     1.0000 0.73007  0.50000  0.23007  Biso   1.000  C
  C140     1.0000 0.70850  0.50000  0.14516  Biso   1.000  C
  N56      1.0000 0.74452  0.50000  0.18194  Biso   1.000  N
  C141     1.0000 0.87854  0.50000  0.62146  Biso   1.000  C
  C142     1.0000 0.83963  0.50000  0.66037  Biso   1.000  C
  C143     1.0000 0.85484  0.50000  0.70850  Biso   1.000  C
  N57      1.0000 0.81806  0.50000  0.74452  Biso   1.000  N
  C144     1.0000 0.76993  0.50000  0.73007  Biso   1.000  C
  O101     1.0000 0.86342  0.50000  0.57817  Biso   1.000  O
  C145     1.0000 0.79150  0.50000  0.64516  Biso   1.000  C
  N58      1.0000 0.75548  0.50000  0.68194  Biso   1.000  N
  O102     1.0000 0.57817  0.50000  0.86342  Biso   1.000  O
  C146     1.0000 0.62146  0.50000  0.87854  Biso   1.000  C
  C147     1.0000 0.66037  0.50000  0.83963  Biso   1.000  C
  C148     1.0000 0.64516  0.50000  0.79150  Biso   1.000  C
  N59      1.0000 0.68194  0.50000  0.75548  Biso   1.000  N
  C149     1.0000 0.73007  0.50000  0.76993  Biso   1.000  C
  C150     1.0000 0.70850  0.50000  0.85484  Biso   1.000  C
  N60      1.0000 0.74452  0.50000  0.81806  Biso   1.000  N
  O103     1.0000 0.13658  0.50000  0.42183  Biso   1.000  O
  O104     1.0000 0.13658  0.42183  0.50000  Biso   1.000  O
  O105     1.0000 0.13658  0.57817  0.50000  Biso   1.000  O
  H193     1.0000 0.71941  0.50000  0.32695  Biso   1.000  H
  H194     1.0000 0.78322  0.50000  0.17240  Biso   1.000  H
  H195     1.0000 0.82695  0.50000  0.78059  Biso   1.000  H
  H196     1.0000 0.17305  0.50000  0.78059  Biso   1.000  H
  H197     1.0000 0.71941  0.50000  0.67305  Biso   1.000  H
  H198     1.0000 0.67643  0.53255  0.26687  Biso   1.000  H
  H199     1.0000 0.67643  0.46745  0.26687  Biso   1.000  H
  H200     1.0000 0.71678  0.50000  0.67240  Biso   1.000  H
  H201     1.0000 0.82357  0.53255  0.23314  Biso   1.000  H
  H202     1.0000 0.82357  0.46745  0.23314  Biso   1.000  H
  H203     1.0000 0.21941  0.50000  0.82695  Biso   1.000  H
  H204     1.0000 0.21678  0.50000  0.82760  Biso   1.000  H
  H205     1.0000 0.78059  0.50000  0.17305  Biso   1.000  H
  H206     1.0000 0.17240  0.50000  0.78322  Biso   1.000  H
  H207     1.0000 0.71678  0.50000  0.32760  Biso   1.000  H
  H208     1.0000 0.67305  0.50000  0.71941  Biso   1.000  H
  H209     1.0000 0.32357  0.46745  0.73313  Biso   1.000  H
  H210     1.0000 0.32357  0.53255  0.73313  Biso   1.000  H
  H211     1.0000 0.82357  0.46745  0.76687  Biso   1.000  H
  H212     1.0000 0.82357  0.53255  0.76687  Biso   1.000  H
  H213     1.0000 0.67240  0.50000  0.71678  Biso   1.000  H
  H214     1.0000 0.26687  0.46745  0.67643  Biso   1.000  H
  H215     1.0000 0.26687  0.53255  0.67643  Biso   1.000  H
  H216     1.0000 0.78059  0.50000  0.82695  Biso   1.000  H
  H217     1.0000 0.76687  0.46745  0.82357  Biso   1.000  H
  H218     1.0000 0.76687  0.53255  0.82357  Biso   1.000  H
  H219     1.0000 0.32695  0.50000  0.71941  Biso   1.000  H
  H220     1.0000 0.82695  0.50000  0.21941  Biso   1.000  H
  H221     1.0000 0.28059  0.50000  0.67305  Biso   1.000  H
  H222     1.0000 0.67305  0.50000  0.28059  Biso   1.000  H
  C151     1.0000 0.12146  0.50000  0.37854  Biso   1.000  C
  C152     1.0000 0.16037  0.50000  0.33963  Biso   1.000  C
  C153     1.0000 0.20850  0.50000  0.35484  Biso   1.000  C
  N61      1.0000 0.24452  0.50000  0.31806  Biso   1.000  N
  C154     1.0000 0.23007  0.50000  0.26993  Biso   1.000  C
  C155     1.0000 0.14516  0.50000  0.29150  Biso   1.000  C
  N62      1.0000 0.18194  0.50000  0.25548  Biso   1.000  N
  C156     1.0000 0.37854  0.50000  0.12146  Biso   1.000  C
  C157     1.0000 0.33963  0.50000  0.16037  Biso   1.000  C
  C158     1.0000 0.29150  0.50000  0.14516  Biso   1.000  C
  N63      1.0000 0.25548  0.50000  0.18194  Biso   1.000  N
  C159     1.0000 0.26993  0.50000  0.23007  Biso   1.000  C
  O106     1.0000 0.42183  0.50000  0.13658  Biso   1.000  O
  C160     1.0000 0.35484  0.50000  0.20850  Biso   1.000  C
  N64      1.0000 0.31806  0.50000  0.24452  Biso   1.000  N
  H223     1.0000 0.78322  0.50000  0.82760  Biso   1.000  H
  H224     1.0000 0.17305  0.50000  0.21941  Biso   1.000  H
  H225     1.0000 0.67643  0.53255  0.73313  Biso   1.000  H
  H226     1.0000 0.67643  0.46745  0.73313  Biso   1.000  H
  H227     1.0000 0.21941  0.50000  0.17305  Biso   1.000  H
  H228     1.0000 0.21678  0.50000  0.17240  Biso   1.000  H
  H229     1.0000 0.17240  0.50000  0.21678  Biso   1.000  H
  H230     1.0000 0.32357  0.46745  0.26687  Biso   1.000  H
  H231     1.0000 0.32357  0.53255  0.26687  Biso   1.000  H
  H232     1.0000 0.67240  0.50000  0.28322  Biso   1.000  H
  H233     1.0000 0.26687  0.46745  0.32357  Biso   1.000  H
  H234     1.0000 0.26687  0.53255  0.32357  Biso   1.000  H
  H235     1.0000 0.76687  0.46745  0.17643  Biso   1.000  H
  H236     1.0000 0.76687  0.53255  0.17643  Biso   1.000  H
  H237     1.0000 0.32695  0.50000  0.28059  Biso   1.000  H
  H238     1.0000 0.28059  0.50000  0.32695  Biso   1.000  H
  O107     1.0000 0.04912  0.95088  0.95088  Biso   1.000  O
  O108     1.0000 0.04912  0.95088  0.04912  Biso   1.000  O
  O109     1.0000 0.04912  0.04912  0.04912  Biso   1.000  O
  O110     1.0000 0.04912  0.04912  0.95088  Biso   1.000  O
  O111     1.0000 0.95088  0.04912  0.04912  Biso   1.000  O
  O112     1.0000 0.95088  0.95088  0.04912  Biso   1.000  O
  O113     1.0000 0.95088  0.04912  0.95088  Biso   1.000  O
  O114     1.0000 0.95088  0.95088  0.95088  Biso   1.000  O
  O115     1.0000 0.50000  0.13658  0.57817  Biso   1.000  O
  C161     1.0000 0.50000  0.12146  0.62146  Biso   1.000  C
  C162     1.0000 0.50000  0.16037  0.66037  Biso   1.000  C
  C163     1.0000 0.50000  0.20850  0.64516  Biso   1.000  C
  N65      1.0000 0.50000  0.24452  0.68194  Biso   1.000  N
  C164     1.0000 0.50000  0.23007  0.73007  Biso   1.000  C
  C165     1.0000 0.50000  0.14516  0.70850  Biso   1.000  C
  N66      1.0000 0.50000  0.18194  0.74452  Biso   1.000  N
  C166     1.0000 0.50000  0.37854  0.87854  Biso   1.000  C
  C167     1.0000 0.50000  0.33963  0.83963  Biso   1.000  C
  C168     1.0000 0.50000  0.29150  0.85484  Biso   1.000  C
  N67      1.0000 0.50000  0.25548  0.81806  Biso   1.000  N
  C169     1.0000 0.50000  0.26993  0.76993  Biso   1.000  C
  O116     1.0000 0.50000  0.42183  0.86342  Biso   1.000  O
  C170     1.0000 0.50000  0.35484  0.79150  Biso   1.000  C
  N68      1.0000 0.50000  0.31806  0.75548  Biso   1.000  N
  C171     1.0000 0.50000  0.87854  0.37854  Biso   1.000  C
  C172     1.0000 0.50000  0.83963  0.33963  Biso   1.000  C
  C173     1.0000 0.50000  0.85484  0.29150  Biso   1.000  C
  N69      1.0000 0.50000  0.81806  0.25548  Biso   1.000  N
  C174     1.0000 0.50000  0.76993  0.26993  Biso   1.000  C
  O117     1.0000 0.50000  0.86342  0.42183  Biso   1.000  O
  C175     1.0000 0.50000  0.79150  0.35484  Biso   1.000  C
  N70      1.0000 0.50000  0.75548  0.31806  Biso   1.000  N
  O118     1.0000 0.50000  0.57817  0.13658  Biso   1.000  O
  C176     1.0000 0.50000  0.62146  0.12146  Biso   1.000  C
  C177     1.0000 0.50000  0.66037  0.16037  Biso   1.000  C
  C178     1.0000 0.50000  0.64516  0.20850  Biso   1.000  C
  N71      1.0000 0.50000  0.68194  0.24452  Biso   1.000  N
  C179     1.0000 0.50000  0.73007  0.23007  Biso   1.000  C
  C180     1.0000 0.50000  0.70850  0.14516  Biso   1.000  C
  N72      1.0000 0.50000  0.74452  0.18194  Biso   1.000  N
  C181     1.0000 0.50000  0.87854  0.62146  Biso   1.000  C
  C182     1.0000 0.50000  0.83963  0.66037  Biso   1.000  C
  C183     1.0000 0.50000  0.85484  0.70850  Biso   1.000  C
  N73      1.0000 0.50000  0.81806  0.74452  Biso   1.000  N
  C184     1.0000 0.50000  0.76993  0.73007  Biso   1.000  C
  O119     1.0000 0.50000  0.86342  0.57817  Biso   1.000  O
  C185     1.0000 0.50000  0.79150  0.64516  Biso   1.000  C
  N74      1.0000 0.50000  0.75548  0.68194  Biso   1.000  N
  O120     1.0000 0.50000  0.57817  0.86342  Biso   1.000  O
  C186     1.0000 0.50000  0.62146  0.87854  Biso   1.000  C
  C187     1.0000 0.50000  0.66037  0.83963  Biso   1.000  C
  C188     1.0000 0.50000  0.64516  0.79150  Biso   1.000  C
  N75      1.0000 0.50000  0.68194  0.75548  Biso   1.000  N
  C189     1.0000 0.50000  0.73007  0.76993  Biso   1.000  C
  C190     1.0000 0.50000  0.70850  0.85484  Biso   1.000  C
  N76      1.0000 0.50000  0.74452  0.81806  Biso   1.000  N
  O121     1.0000 0.50000  0.13658  0.42183  Biso   1.000  O
  O122     1.0000 0.42183  0.13658  0.50000  Biso   1.000  O
  O123     1.0000 0.57817  0.13658  0.50000  Biso   1.000  O
  H239     1.0000 0.50000  0.71941  0.32695  Biso   1.000  H
  H240     1.0000 0.50000  0.78322  0.17240  Biso   1.000  H
  H241     1.0000 0.50000  0.82695  0.78059  Biso   1.000  H
  H242     1.0000 0.50000  0.17305  0.78059  Biso   1.000  H
  H243     1.0000 0.50000  0.71941  0.67305  Biso   1.000  H
  H244     1.0000 0.53255  0.67643  0.26687  Biso   1.000  H
  H245     1.0000 0.46745  0.67643  0.26687  Biso   1.000  H
  H246     1.0000 0.50000  0.71678  0.67240  Biso   1.000  H
  H247     1.0000 0.53255  0.82357  0.23314  Biso   1.000  H
  H248     1.0000 0.46745  0.82357  0.23314  Biso   1.000  H
  H249     1.0000 0.50000  0.21941  0.82695  Biso   1.000  H
  H250     1.0000 0.50000  0.21678  0.82760  Biso   1.000  H
  H251     1.0000 0.50000  0.78059  0.17305  Biso   1.000  H
  H252     1.0000 0.50000  0.17240  0.78322  Biso   1.000  H
  H253     1.0000 0.50000  0.71678  0.32760  Biso   1.000  H
  H254     1.0000 0.50000  0.67305  0.71941  Biso   1.000  H
  H255     1.0000 0.46745  0.32357  0.73313  Biso   1.000  H
  H256     1.0000 0.53255  0.32357  0.73313  Biso   1.000  H
  H257     1.0000 0.46745  0.82357  0.76687  Biso   1.000  H
  H258     1.0000 0.53255  0.82357  0.76687  Biso   1.000  H
  H259     1.0000 0.50000  0.67240  0.71678  Biso   1.000  H
  H260     1.0000 0.46745  0.26687  0.67643  Biso   1.000  H
  H261     1.0000 0.53255  0.26687  0.67643  Biso   1.000  H
  H262     1.0000 0.50000  0.78059  0.82695  Biso   1.000  H
  H263     1.0000 0.46745  0.76687  0.82357  Biso   1.000  H
  H264     1.0000 0.53255  0.76687  0.82357  Biso   1.000  H
  H265     1.0000 0.50000  0.32695  0.71941  Biso   1.000  H
  H266     1.0000 0.50000  0.82695  0.21941  Biso   1.000  H
  H267     1.0000 0.50000  0.28059  0.67305  Biso   1.000  H
  H268     1.0000 0.50000  0.67305  0.28059  Biso   1.000  H
  C191     1.0000 0.50000  0.12146  0.37854  Biso   1.000  C
  C192     1.0000 0.50000  0.16037  0.33963  Biso   1.000  C
  C193     1.0000 0.50000  0.20850  0.35484  Biso   1.000  C
  N77      1.0000 0.50000  0.24452  0.31806  Biso   1.000  N
  C194     1.0000 0.50000  0.23007  0.26993  Biso   1.000  C
  C195     1.0000 0.50000  0.14516  0.29150  Biso   1.000  C
  N78      1.0000 0.50000  0.18194  0.25548  Biso   1.000  N
  C196     1.0000 0.50000  0.37854  0.12146  Biso   1.000  C
  C197     1.0000 0.50000  0.33963  0.16037  Biso   1.000  C
  C198     1.0000 0.50000  0.29150  0.14516  Biso   1.000  C
  N79      1.0000 0.50000  0.25548  0.18194  Biso   1.000  N
  C199     1.0000 0.50000  0.26993  0.23007  Biso   1.000  C
  O124     1.0000 0.50000  0.42183  0.13658  Biso   1.000  O
  C200     1.0000 0.50000  0.35484  0.20850  Biso   1.000  C
  N80      1.0000 0.50000  0.31806  0.24452  Biso   1.000  N
  H269     1.0000 0.50000  0.78322  0.82760  Biso   1.000  H
  H270     1.0000 0.50000  0.17305  0.21941  Biso   1.000  H
  H271     1.0000 0.53255  0.67643  0.73313  Biso   1.000  H
  H272     1.0000 0.46745  0.67643  0.73313  Biso   1.000  H
  H273     1.0000 0.50000  0.21941  0.17305  Biso   1.000  H
  H274     1.0000 0.50000  0.21678  0.17240  Biso   1.000  H
  H275     1.0000 0.50000  0.17240  0.21678  Biso   1.000  H
  H276     1.0000 0.46745  0.32357  0.26687  Biso   1.000  H
  H277     1.0000 0.53255  0.32357  0.26687  Biso   1.000  H
  H278     1.0000 0.50000  0.67240  0.28322  Biso   1.000  H
  H279     1.0000 0.46745  0.26687  0.32357  Biso   1.000  H
  H280     1.0000 0.53255  0.26687  0.32357  Biso   1.000  H
  H281     1.0000 0.46745  0.76687  0.17643  Biso   1.000  H
  H282     1.0000 0.53255  0.76687  0.17643  Biso   1.000  H
  H283     1.0000 0.50000  0.32695  0.28059  Biso   1.000  H
  H284     1.0000 0.50000  0.28059  0.32695  Biso   1.000  H
  O125     1.0000 0.42183  0.86342  0.50000  Biso   1.000  O
  O126     1.0000 0.57817  0.86342  0.50000  Biso   1.000  O
  H285     1.0000 0.53255  0.73313  0.32357  Biso   1.000  H
  H286     1.0000 0.46745  0.73313  0.32357  Biso   1.000  H
  H287     1.0000 0.50000  0.32760  0.71678  Biso   1.000  H
  H288     1.0000 0.50000  0.28322  0.67240  Biso   1.000  H
  H289     1.0000 0.50000  0.82760  0.21678  Biso   1.000  H
  H290     1.0000 0.46745  0.23314  0.82357  Biso   1.000  H
  H291     1.0000 0.53255  0.23314  0.82357  Biso   1.000  H
  H292     1.0000 0.46745  0.17643  0.76687  Biso   1.000  H
  H293     1.0000 0.53255  0.17643  0.76687  Biso   1.000  H
  H294     1.0000 0.53255  0.73313  0.67643  Biso   1.000  H
  H295     1.0000 0.46745  0.73313  0.67643  Biso   1.000  H
  H296     1.0000 0.50000  0.32760  0.28322  Biso   1.000  H
  H297     1.0000 0.50000  0.28322  0.32760  Biso   1.000  H
  H298     1.0000 0.50000  0.82760  0.78322  Biso   1.000  H
  H299     1.0000 0.46745  0.23314  0.17643  Biso   1.000  H
  H300     1.0000 0.53255  0.23314  0.17643  Biso   1.000  H
  H301     1.0000 0.46745  0.17643  0.23314  Biso   1.000  H
  H302     1.0000 0.53255  0.17643  0.23314  Biso   1.000  H
  O127     1.0000 0.86342  0.42183  0.50000  Biso   1.000  O
  O128     1.0000 0.86342  0.57817  0.50000  Biso   1.000  O
  H303     1.0000 0.73313  0.53255  0.32357  Biso   1.000  H
  H304     1.0000 0.73313  0.46745  0.32357  Biso   1.000  H
  H305     1.0000 0.32760  0.50000  0.71678  Biso   1.000  H
  H306     1.0000 0.28322  0.50000  0.67240  Biso   1.000  H
  H307     1.0000 0.82760  0.50000  0.21678  Biso   1.000  H
  H308     1.0000 0.23314  0.46745  0.82357  Biso   1.000  H
  H309     1.0000 0.23314  0.53255  0.82357  Biso   1.000  H
  H310     1.0000 0.17643  0.46745  0.76687  Biso   1.000  H
  H311     1.0000 0.17643  0.53255  0.76687  Biso   1.000  H
  H312     1.0000 0.73313  0.53255  0.67643  Biso   1.000  H
  H313     1.0000 0.73313  0.46745  0.67643  Biso   1.000  H
  H314     1.0000 0.32760  0.50000  0.28322  Biso   1.000  H
  H315     1.0000 0.28322  0.50000  0.32760  Biso   1.000  H
  H316     1.0000 0.82760  0.50000  0.78322  Biso   1.000  H
  H317     1.0000 0.23314  0.46745  0.17643  Biso   1.000  H
  H318     1.0000 0.23314  0.53255  0.17643  Biso   1.000  H
  H319     1.0000 0.17643  0.46745  0.23314  Biso   1.000  H
  H320     1.0000 0.17643  0.53255  0.23314  Biso   1.000  H
  C201     1.0000 0.12146  0.62146  0.50000  Biso   1.000  C
  C202     1.0000 0.16037  0.66037  0.50000  Biso   1.000  C
  C203     1.0000 0.20850  0.64516  0.50000  Biso   1.000  C
  N81      1.0000 0.24452  0.68194  0.50000  Biso   1.000  N
  C204     1.0000 0.23007  0.73007  0.50000  Biso   1.000  C
  C205     1.0000 0.14516  0.70850  0.50000  Biso   1.000  C
  N82      1.0000 0.18194  0.74452  0.50000  Biso   1.000  N
  C206     1.0000 0.37854  0.87854  0.50000  Biso   1.000  C
  C207     1.0000 0.33963  0.83963  0.50000  Biso   1.000  C
  C208     1.0000 0.29150  0.85484  0.50000  Biso   1.000  C
  N83      1.0000 0.25548  0.81806  0.50000  Biso   1.000  N
  C209     1.0000 0.26993  0.76993  0.50000  Biso   1.000  C
  C210     1.0000 0.35484  0.79150  0.50000  Biso   1.000  C
  N84      1.0000 0.31806  0.75548  0.50000  Biso   1.000  N
  C211     1.0000 0.87854  0.37854  0.50000  Biso   1.000  C
  C212     1.0000 0.83963  0.33963  0.50000  Biso   1.000  C
  C213     1.0000 0.85484  0.29150  0.50000  Biso   1.000  C
  N85      1.0000 0.81806  0.25548  0.50000  Biso   1.000  N
  C214     1.0000 0.76993  0.26993  0.50000  Biso   1.000  C
  C215     1.0000 0.79150  0.35484  0.50000  Biso   1.000  C
  N86      1.0000 0.75548  0.31806  0.50000  Biso   1.000  N
  C216     1.0000 0.62146  0.12146  0.50000  Biso   1.000  C
  C217     1.0000 0.66037  0.16037  0.50000  Biso   1.000  C
  C218     1.0000 0.64516  0.20850  0.50000  Biso   1.000  C
  N87      1.0000 0.68194  0.24452  0.50000  Biso   1.000  N
  C219     1.0000 0.73007  0.23007  0.50000  Biso   1.000  C
  C220     1.0000 0.70850  0.14516  0.50000  Biso   1.000  C
  N88      1.0000 0.74452  0.18194  0.50000  Biso   1.000  N
  C221     1.0000 0.87854  0.62146  0.50000  Biso   1.000  C
  C222     1.0000 0.83963  0.66037  0.50000  Biso   1.000  C
  C223     1.0000 0.85484  0.70850  0.50000  Biso   1.000  C
  N89      1.0000 0.81806  0.74452  0.50000  Biso   1.000  N
  C224     1.0000 0.76993  0.73007  0.50000  Biso   1.000  C
  C225     1.0000 0.79150  0.64516  0.50000  Biso   1.000  C
  N90      1.0000 0.75548  0.68194  0.50000  Biso   1.000  N
  C226     1.0000 0.62146  0.87854  0.50000  Biso   1.000  C
  C227     1.0000 0.66037  0.83963  0.50000  Biso   1.000  C
  C228     1.0000 0.64516  0.79150  0.50000  Biso   1.000  C
  N91      1.0000 0.68194  0.75548  0.50000  Biso   1.000  N
  C229     1.0000 0.73007  0.76993  0.50000  Biso   1.000  C
  C230     1.0000 0.70850  0.85484  0.50000  Biso   1.000  C
  N92      1.0000 0.74452  0.81806  0.50000  Biso   1.000  N
  H321     1.0000 0.71941  0.32695  0.50000  Biso   1.000  H
  H322     1.0000 0.78322  0.17240  0.50000  Biso   1.000  H
  H323     1.0000 0.82695  0.78059  0.50000  Biso   1.000  H
  H324     1.0000 0.17305  0.78059  0.50000  Biso   1.000  H
  H325     1.0000 0.71941  0.67305  0.50000  Biso   1.000  H
  H326     1.0000 0.67643  0.26687  0.53255  Biso   1.000  H
  H327     1.0000 0.67643  0.26687  0.46745  Biso   1.000  H
  H328     1.0000 0.71678  0.67240  0.50000  Biso   1.000  H
  H329     1.0000 0.82357  0.23314  0.53255  Biso   1.000  H
  H330     1.0000 0.82357  0.23314  0.46745  Biso   1.000  H
  H331     1.0000 0.21941  0.82695  0.50000  Biso   1.000  H
  H332     1.0000 0.21678  0.82760  0.50000  Biso   1.000  H
  H333     1.0000 0.78059  0.17305  0.50000  Biso   1.000  H
  H334     1.0000 0.17240  0.78322  0.50000  Biso   1.000  H
  H335     1.0000 0.71678  0.32760  0.50000  Biso   1.000  H
  H336     1.0000 0.67305  0.71941  0.50000  Biso   1.000  H
  H337     1.0000 0.32357  0.73313  0.46745  Biso   1.000  H
  H338     1.0000 0.32357  0.73313  0.53255  Biso   1.000  H
  H339     1.0000 0.82357  0.76687  0.46745  Biso   1.000  H
  H340     1.0000 0.82357  0.76687  0.53255  Biso   1.000  H
  H341     1.0000 0.67240  0.71678  0.50000  Biso   1.000  H
  H342     1.0000 0.26687  0.67643  0.46745  Biso   1.000  H
  H343     1.0000 0.26687  0.67643  0.53255  Biso   1.000  H
  H344     1.0000 0.78059  0.82695  0.50000  Biso   1.000  H
  H345     1.0000 0.76687  0.82357  0.46745  Biso   1.000  H
  H346     1.0000 0.76687  0.82357  0.53255  Biso   1.000  H
  H347     1.0000 0.32695  0.71941  0.50000  Biso   1.000  H
  H348     1.0000 0.82695  0.21941  0.50000  Biso   1.000  H
  H349     1.0000 0.28059  0.67305  0.50000  Biso   1.000  H
  H350     1.0000 0.67305  0.28059  0.50000  Biso   1.000  H
  C231     1.0000 0.12146  0.37854  0.50000  Biso   1.000  C
  C232     1.0000 0.16037  0.33963  0.50000  Biso   1.000  C
  C233     1.0000 0.20850  0.35484  0.50000  Biso   1.000  C
  N93      1.0000 0.24452  0.31806  0.50000  Biso   1.000  N
  C234     1.0000 0.23007  0.26993  0.50000  Biso   1.000  C
  C235     1.0000 0.14516  0.29150  0.50000  Biso   1.000  C
  N94      1.0000 0.18194  0.25548  0.50000  Biso   1.000  N
  C236     1.0000 0.37854  0.12146  0.50000  Biso   1.000  C
  C237     1.0000 0.33963  0.16037  0.50000  Biso   1.000  C
  C238     1.0000 0.29150  0.14516  0.50000  Biso   1.000  C
  N95      1.0000 0.25548  0.18194  0.50000  Biso   1.000  N
  C239     1.0000 0.26993  0.23007  0.50000  Biso   1.000  C
  C240     1.0000 0.35484  0.20850  0.50000  Biso   1.000  C
  N96      1.0000 0.31806  0.24452  0.50000  Biso   1.000  N
  H351     1.0000 0.78322  0.82760  0.50000  Biso   1.000  H
  H352     1.0000 0.17305  0.21941  0.50000  Biso   1.000  H
  H353     1.0000 0.67643  0.73313  0.53255  Biso   1.000  H
  H354     1.0000 0.67643  0.73313  0.46745  Biso   1.000  H
  H355     1.0000 0.21941  0.17305  0.50000  Biso   1.000  H
  H356     1.0000 0.21678  0.17240  0.50000  Biso   1.000  H
  H357     1.0000 0.17240  0.21678  0.50000  Biso   1.000  H
  H358     1.0000 0.32357  0.26687  0.46745  Biso   1.000  H
  H359     1.0000 0.32357  0.26687  0.53255  Biso   1.000  H
  H360     1.0000 0.67240  0.28322  0.50000  Biso   1.000  H
  H361     1.0000 0.26687  0.32357  0.46745  Biso   1.000  H
  H362     1.0000 0.26687  0.32357  0.53255  Biso   1.000  H
  H363     1.0000 0.76687  0.17643  0.46745  Biso   1.000  H
  H364     1.0000 0.76687  0.17643  0.53255  Biso   1.000  H
  H365     1.0000 0.32695  0.28059  0.50000  Biso   1.000  H
  H366     1.0000 0.28059  0.32695  0.50000  Biso   1.000  H
  H367     1.0000 0.73313  0.32357  0.53255  Biso   1.000  H
  H368     1.0000 0.73313  0.32357  0.46745  Biso   1.000  H
  H369     1.0000 0.32760  0.71678  0.50000  Biso   1.000  H
  H370     1.0000 0.28322  0.67240  0.50000  Biso   1.000  H
  H371     1.0000 0.82760  0.21678  0.50000  Biso   1.000  H
  H372     1.0000 0.23314  0.82357  0.46745  Biso   1.000  H
  H373     1.0000 0.23314  0.82357  0.53255  Biso   1.000  H
  H374     1.0000 0.17643  0.76687  0.46745  Biso   1.000  H
  H375     1.0000 0.17643  0.76687  0.53255  Biso   1.000  H
  H376     1.0000 0.73313  0.67643  0.53255  Biso   1.000  H
  H377     1.0000 0.73313  0.67643  0.46745  Biso   1.000  H
  H378     1.0000 0.32760  0.28322  0.50000  Biso   1.000  H
  H379     1.0000 0.28322  0.32760  0.50000  Biso   1.000  H
  H380     1.0000 0.82760  0.78322  0.50000  Biso   1.000  H
  H381     1.0000 0.23314  0.17643  0.46745  Biso   1.000  H
  H382     1.0000 0.23314  0.17643  0.53255  Biso   1.000  H
  H383     1.0000 0.17643  0.23314  0.46745  Biso   1.000  H
  H384     1.0000 0.17643  0.23314  0.53255  Biso   1.000  H
