
##########################################################################
#               Crystallographic Information Format file
#               Produced by PyCifRW module
#
#  This is a CIF file.  CIF has been adopted by the International
#  Union of Crystallography as the standard for data archiving and
#  transmission.
#
#  For information on this file format, follow the CIF links at
#  http://www.iucr.org
##########################################################################

data_NO2-DMOF

_space_group_crystal_system             orthorhombic
loop_
  _space_group_symop_operation_xyz
         'x, y, z'           
         '-x+1/2, -y+1/2, z'           
         'x, -y+1/2, -z'     
         '-x+1/2, y, -z'     
         '-x, -y, -z'        
         'x-1/2, y-1/2, -z'  
         '-x, y-1/2, z'      
         'x-1/2, -y, z' 
_cell_length_a                          16.2647(5)
_cell_length_b                          14.5206(5)
_cell_length_c                          9.6475(3)
_cell_angle_alpha                       90.00
_cell_angle_beta                        90.00
_cell_angle_gamma                       90.00
_cell_volume                            2278.50(14)
loop_
  _atom_site_label
  _atom_site_type_symbol
  _atom_site_fract_x
  _atom_site_fract_y
  _atom_site_fract_z
  _atom_site_occupancy
         Zn1       Zn        0.7500    0.2500    0.34566(6)          1         
         O1        O         0.65564(18)         0.3384(2)           0.3861(3)           1        
         O2        O         0.67007(19)         0.1445(2)           0.3860(3)           1        
         C3        C         0.5520(3)           0.4954(3)           0.6124(5)           1        
         C1        C         0.6377(2)           0.3721(3)           0.5006(3)           1        
         C4        C         0.4860(3)           0.5562(3)           0.6128(4)           1        
         H4        H         0.4772    0.5939    0.6893    1         
         N1        N         0.7500    0.2500    0.1344(5)           1         
         C2        C         0.5670(2)           0.4389(3)           0.5006(3)           1        
         C7        C         0.6673(7)           0.2774(15)          0.0786(11)         0.30     
         H7A       H         0.6530    0.3381    0.1128    0.30      
         H7B       H         0.6260    0.2343    0.1112    0.30      
         C8        C         0.7005(12)          0.3277(12)          0.0784(12)         0.30     
         H8A       H         0.7235    0.3854    0.1110    0.30      
         H8B       H         0.6447    0.3232    0.1135    0.30      
         C5        C         0.6983(11)          0.1717(11)          0.0791(11)         0.30     
         H5A       H         0.6421    0.1784    0.1110    0.30      
         H5B       H         0.7194    0.1136    0.1135    0.30      
         C9        C         0.7483(15)          0.3454(8)           0.0786(14)         0.30     
         H9A       H         0.7947    0.3796    0.1149    0.30      
         H9B       H         0.6983    0.3758    0.1089    0.30      
         C6        C         0.6678(9)           0.2218(17)          0.0784(14)         0.30     
         H6A       H         0.6259    0.2636    0.1127    0.30      
         H6B       H         0.6546    0.1604    0.1111    0.30      
         N2        N         0.6066(9)           0.5141(12)          0.7262(14)         0.50     
         O4        O         0.5838(12)          0.4795(15)          0.8326(19)         0.50     
         O3        O         0.6743(12)          0.5395(14)          0.699(2)  0.50
