data_image0
_cell_length_a       41.4008
_cell_length_b       41.4008
_cell_length_c       41.4008
_cell_angle_alpha    90
_cell_angle_beta     90
_cell_angle_gamma    90

_symmetry_space_group_name_H-M    "P 1"
_symmetry_int_tables_number       1

loop_
  _symmetry_equiv_pos_as_xyz
  'x, y, z'

loop_
  _atom_site_label
  _atom_site_occupancy
  _atom_site_fract_x
  _atom_site_fract_y
  _atom_site_fract_z
  _atom_site_thermal_displace_type
  _atom_site_B_iso_or_equiv
  _atom_site_type_symbol
  Zr1      1.0000 0.05994  0.00000  0.00000  Biso   1.000  Zr
  Zr2      1.0000 0.05994  0.25000  0.25000  Biso   1.000  Zr
  Zr3      1.0000 0.30995  0.00000  0.25000  Biso   1.000  Zr
  Zr4      1.0000 0.30995  0.25000  0.00000  Biso   1.000  Zr
  Zr5      1.0000 0.44005  0.00000  0.00000  Biso   1.000  Zr
  Zr6      1.0000 0.44005  0.25000  0.25000  Biso   1.000  Zr
  Zr7      1.0000 0.19006  0.00000  0.25000  Biso   1.000  Zr
  Zr8      1.0000 0.19006  0.25000  0.00000  Biso   1.000  Zr
  Zr9      1.0000 0.00000  0.05994  0.00000  Biso   1.000  Zr
  Zr10     1.0000 0.00000  0.30995  0.25000  Biso   1.000  Zr
  Zr11     1.0000 0.25000  0.05994  0.25000  Biso   1.000  Zr
  Zr12     1.0000 0.25000  0.30995  0.00000  Biso   1.000  Zr
  Zr13     1.0000 0.00000  0.44005  0.00000  Biso   1.000  Zr
  Zr14     1.0000 0.00000  0.19006  0.25000  Biso   1.000  Zr
  Zr15     1.0000 0.25000  0.44005  0.25000  Biso   1.000  Zr
  Zr16     1.0000 0.25000  0.19006  0.00000  Biso   1.000  Zr
  Zr17     1.0000 0.00000  0.00000  0.05994  Biso   1.000  Zr
  Zr18     1.0000 0.00000  0.25000  0.30995  Biso   1.000  Zr
  Zr19     1.0000 0.25000  0.00000  0.30995  Biso   1.000  Zr
  Zr20     1.0000 0.25000  0.25000  0.05994  Biso   1.000  Zr
  Zr21     1.0000 0.00000  0.00000  0.44005  Biso   1.000  Zr
  Zr22     1.0000 0.00000  0.25000  0.19006  Biso   1.000  Zr
  Zr23     1.0000 0.25000  0.00000  0.19006  Biso   1.000  Zr
  Zr24     1.0000 0.25000  0.25000  0.44005  Biso   1.000  Zr
  O1       1.0000 0.08524  0.00000  0.04765  Biso   1.000  O
  C1       1.0000 0.13375  0.00000  0.09220  Biso   1.000  C
  H1       1.0000 0.13936  0.00000  0.06524  Biso   1.000  H
  O2       1.0000 0.08524  0.25000  0.29765  Biso   1.000  O
  C2       1.0000 0.13375  0.25000  0.34220  Biso   1.000  C
  H2       1.0000 0.13936  0.25000  0.31524  Biso   1.000  H
  O3       1.0000 0.33524  0.00000  0.29765  Biso   1.000  O
  C3       1.0000 0.38375  0.00000  0.34220  Biso   1.000  C
  H3       1.0000 0.38936  0.00000  0.31524  Biso   1.000  H
  O4       1.0000 0.33524  0.25000  0.04765  Biso   1.000  O
  C4       1.0000 0.38375  0.25000  0.09220  Biso   1.000  C
  H4       1.0000 0.38936  0.25000  0.06524  Biso   1.000  H
  O5       1.0000 0.41476  0.00000  0.04765  Biso   1.000  O
  C5       1.0000 0.36625  0.00000  0.09220  Biso   1.000  C
  H5       1.0000 0.36064  0.00000  0.06524  Biso   1.000  H
  O6       1.0000 0.41476  0.25000  0.29765  Biso   1.000  O
  C6       1.0000 0.36625  0.25000  0.34220  Biso   1.000  C
  H6       1.0000 0.36064  0.25000  0.31524  Biso   1.000  H
  O7       1.0000 0.16476  0.00000  0.29765  Biso   1.000  O
  C7       1.0000 0.11625  0.00000  0.34220  Biso   1.000  C
  H7       1.0000 0.11064  0.00000  0.31524  Biso   1.000  H
  O8       1.0000 0.16476  0.25000  0.04765  Biso   1.000  O
  C8       1.0000 0.11625  0.25000  0.09220  Biso   1.000  C
  H8       1.0000 0.11064  0.25000  0.06524  Biso   1.000  H
  O9       1.0000 0.41476  0.00000  0.45235  Biso   1.000  O
  C9       1.0000 0.36625  0.00000  0.40780  Biso   1.000  C
  H9       1.0000 0.36064  0.00000  0.43476  Biso   1.000  H
  O10      1.0000 0.41476  0.25000  0.20235  Biso   1.000  O
  C10      1.0000 0.36625  0.25000  0.15780  Biso   1.000  C
  H10      1.0000 0.36064  0.25000  0.18476  Biso   1.000  H
  O11      1.0000 0.16476  0.00000  0.20235  Biso   1.000  O
  C11      1.0000 0.11625  0.00000  0.15780  Biso   1.000  C
  H11      1.0000 0.11064  0.00000  0.18476  Biso   1.000  H
  O12      1.0000 0.16476  0.25000  0.45235  Biso   1.000  O
  C12      1.0000 0.11625  0.25000  0.40780  Biso   1.000  C
  H12      1.0000 0.11064  0.25000  0.43476  Biso   1.000  H
  O13      1.0000 0.08524  0.00000  0.45235  Biso   1.000  O
  C13      1.0000 0.13375  0.00000  0.40780  Biso   1.000  C
  H13      1.0000 0.13936  0.00000  0.43476  Biso   1.000  H
  O14      1.0000 0.08524  0.25000  0.20235  Biso   1.000  O
  C14      1.0000 0.13375  0.25000  0.15780  Biso   1.000  C
  H14      1.0000 0.13936  0.25000  0.18476  Biso   1.000  H
  O15      1.0000 0.33524  0.00000  0.20235  Biso   1.000  O
  C15      1.0000 0.38375  0.00000  0.15780  Biso   1.000  C
  H15      1.0000 0.38936  0.00000  0.18476  Biso   1.000  H
  O16      1.0000 0.33524  0.25000  0.45235  Biso   1.000  O
  C16      1.0000 0.38375  0.25000  0.40780  Biso   1.000  C
  H16      1.0000 0.38936  0.25000  0.43476  Biso   1.000  H
  O17      1.0000 0.04765  0.08524  0.00000  Biso   1.000  O
  C17      1.0000 0.09220  0.13375  0.00000  Biso   1.000  C
  H17      1.0000 0.06524  0.13936  0.00000  Biso   1.000  H
  O18      1.0000 0.04765  0.33524  0.25000  Biso   1.000  O
  C18      1.0000 0.09220  0.38375  0.25000  Biso   1.000  C
  H18      1.0000 0.06524  0.38936  0.25000  Biso   1.000  H
  O19      1.0000 0.29765  0.08524  0.25000  Biso   1.000  O
  C19      1.0000 0.34220  0.13375  0.25000  Biso   1.000  C
  H19      1.0000 0.31524  0.13936  0.25000  Biso   1.000  H
  O20      1.0000 0.29765  0.33524  0.00000  Biso   1.000  O
  C20      1.0000 0.34220  0.38375  0.00000  Biso   1.000  C
  H20      1.0000 0.31524  0.38936  0.00000  Biso   1.000  H
  O21      1.0000 0.04765  0.41476  0.00000  Biso   1.000  O
  C21      1.0000 0.09220  0.36625  0.00000  Biso   1.000  C
  H21      1.0000 0.06524  0.36064  0.00000  Biso   1.000  H
  O22      1.0000 0.04765  0.16476  0.25000  Biso   1.000  O
  C22      1.0000 0.09220  0.11625  0.25000  Biso   1.000  C
  H22      1.0000 0.06524  0.11064  0.25000  Biso   1.000  H
  O23      1.0000 0.29765  0.41476  0.25000  Biso   1.000  O
  C23      1.0000 0.34220  0.36625  0.25000  Biso   1.000  C
  H23      1.0000 0.31524  0.36064  0.25000  Biso   1.000  H
  O24      1.0000 0.29765  0.16476  0.00000  Biso   1.000  O
  C24      1.0000 0.34220  0.11625  0.00000  Biso   1.000  C
  H24      1.0000 0.31524  0.11064  0.00000  Biso   1.000  H
  O25      1.0000 0.45235  0.41476  0.00000  Biso   1.000  O
  C25      1.0000 0.40780  0.36625  0.00000  Biso   1.000  C
  H25      1.0000 0.43476  0.36064  0.00000  Biso   1.000  H
  O26      1.0000 0.45235  0.16476  0.25000  Biso   1.000  O
  C26      1.0000 0.40780  0.11625  0.25000  Biso   1.000  C
  H26      1.0000 0.43476  0.11064  0.25000  Biso   1.000  H
  O27      1.0000 0.20235  0.41476  0.25000  Biso   1.000  O
  C27      1.0000 0.15780  0.36625  0.25000  Biso   1.000  C
  H27      1.0000 0.18476  0.36064  0.25000  Biso   1.000  H
  O28      1.0000 0.20235  0.16476  0.00000  Biso   1.000  O
  C28      1.0000 0.15780  0.11625  0.00000  Biso   1.000  C
  H28      1.0000 0.18476  0.11064  0.00000  Biso   1.000  H
  O29      1.0000 0.45235  0.08524  0.00000  Biso   1.000  O
  C29      1.0000 0.40780  0.13375  0.00000  Biso   1.000  C
  H29      1.0000 0.43476  0.13936  0.00000  Biso   1.000  H
  O30      1.0000 0.45235  0.33524  0.25000  Biso   1.000  O
  C30      1.0000 0.40780  0.38375  0.25000  Biso   1.000  C
  H30      1.0000 0.43476  0.38936  0.25000  Biso   1.000  H
  O31      1.0000 0.20235  0.08524  0.25000  Biso   1.000  O
  C31      1.0000 0.15780  0.13375  0.25000  Biso   1.000  C
  H31      1.0000 0.18476  0.13936  0.25000  Biso   1.000  H
  O32      1.0000 0.20235  0.33524  0.00000  Biso   1.000  O
  C32      1.0000 0.15780  0.38375  0.00000  Biso   1.000  C
  H32      1.0000 0.18476  0.38936  0.00000  Biso   1.000  H
  O33      1.0000 0.00000  0.04765  0.08524  Biso   1.000  O
  C33      1.0000 0.00000  0.09220  0.13375  Biso   1.000  C
  H33      1.0000 0.00000  0.06524  0.13936  Biso   1.000  H
  O34      1.0000 0.00000  0.29765  0.33524  Biso   1.000  O
  C34      1.0000 0.00000  0.34220  0.38375  Biso   1.000  C
  H34      1.0000 0.00000  0.31524  0.38936  Biso   1.000  H
  O35      1.0000 0.25000  0.04765  0.33524  Biso   1.000  O
  C35      1.0000 0.25000  0.09220  0.38375  Biso   1.000  C
  H35      1.0000 0.25000  0.06524  0.38936  Biso   1.000  H
  O36      1.0000 0.25000  0.29765  0.08524  Biso   1.000  O
  C36      1.0000 0.25000  0.34220  0.13375  Biso   1.000  C
  H36      1.0000 0.25000  0.31524  0.13936  Biso   1.000  H
  O37      1.0000 0.00000  0.04765  0.41476  Biso   1.000  O
  C37      1.0000 0.00000  0.09220  0.36625  Biso   1.000  C
  H37      1.0000 0.00000  0.06524  0.36064  Biso   1.000  H
  O38      1.0000 0.00000  0.29765  0.16476  Biso   1.000  O
  C38      1.0000 0.00000  0.34220  0.11625  Biso   1.000  C
  H38      1.0000 0.00000  0.31524  0.11064  Biso   1.000  H
  O39      1.0000 0.25000  0.04765  0.16476  Biso   1.000  O
  C39      1.0000 0.25000  0.09220  0.11625  Biso   1.000  C
  H39      1.0000 0.25000  0.06524  0.11064  Biso   1.000  H
  O40      1.0000 0.25000  0.29765  0.41476  Biso   1.000  O
  C40      1.0000 0.25000  0.34220  0.36625  Biso   1.000  C
  H40      1.0000 0.25000  0.31524  0.36064  Biso   1.000  H
  O41      1.0000 0.00000  0.45235  0.41476  Biso   1.000  O
  C41      1.0000 0.00000  0.40780  0.36625  Biso   1.000  C
  H41      1.0000 0.00000  0.43476  0.36064  Biso   1.000  H
  O42      1.0000 0.00000  0.20235  0.16476  Biso   1.000  O
  C42      1.0000 0.00000  0.15780  0.11625  Biso   1.000  C
  H42      1.0000 0.00000  0.18476  0.11064  Biso   1.000  H
  O43      1.0000 0.25000  0.45235  0.16476  Biso   1.000  O
  C43      1.0000 0.25000  0.40780  0.11625  Biso   1.000  C
  H43      1.0000 0.25000  0.43476  0.11064  Biso   1.000  H
  O44      1.0000 0.25000  0.20235  0.41476  Biso   1.000  O
  C44      1.0000 0.25000  0.15780  0.36625  Biso   1.000  C
  H44      1.0000 0.25000  0.18476  0.36064  Biso   1.000  H
  O45      1.0000 0.00000  0.45235  0.08524  Biso   1.000  O
  C45      1.0000 0.00000  0.40780  0.13375  Biso   1.000  C
  H45      1.0000 0.00000  0.43476  0.13936  Biso   1.000  H
  O46      1.0000 0.00000  0.20235  0.33524  Biso   1.000  O
  C46      1.0000 0.00000  0.15780  0.38375  Biso   1.000  C
  H46      1.0000 0.00000  0.18476  0.38936  Biso   1.000  H
  O47      1.0000 0.25000  0.45235  0.33524  Biso   1.000  O
  C47      1.0000 0.25000  0.40780  0.38375  Biso   1.000  C
  H47      1.0000 0.25000  0.43476  0.38936  Biso   1.000  H
  O48      1.0000 0.25000  0.20235  0.08524  Biso   1.000  O
  C48      1.0000 0.25000  0.15780  0.13375  Biso   1.000  C
  H48      1.0000 0.25000  0.18476  0.13936  Biso   1.000  H
  O49      1.0000 0.00000  0.08524  0.45235  Biso   1.000  O
  C49      1.0000 0.00000  0.13375  0.40780  Biso   1.000  C
  H49      1.0000 0.00000  0.13936  0.43476  Biso   1.000  H
  O50      1.0000 0.00000  0.33524  0.20235  Biso   1.000  O
  C50      1.0000 0.00000  0.38375  0.15780  Biso   1.000  C
  H50      1.0000 0.00000  0.38936  0.18476  Biso   1.000  H
  O51      1.0000 0.25000  0.08524  0.20235  Biso   1.000  O
  C51      1.0000 0.25000  0.13375  0.15780  Biso   1.000  C
  H51      1.0000 0.25000  0.13936  0.18476  Biso   1.000  H
  O52      1.0000 0.25000  0.33524  0.45235  Biso   1.000  O
  C52      1.0000 0.25000  0.38375  0.40780  Biso   1.000  C
  H52      1.0000 0.25000  0.38936  0.43476  Biso   1.000  H
  O53      1.0000 0.00000  0.41476  0.45235  Biso   1.000  O
  C53      1.0000 0.00000  0.36625  0.40780  Biso   1.000  C
  H53      1.0000 0.00000  0.36064  0.43476  Biso   1.000  H
  O54      1.0000 0.00000  0.16476  0.20235  Biso   1.000  O
  C54      1.0000 0.00000  0.11625  0.15780  Biso   1.000  C
  H54      1.0000 0.00000  0.11064  0.18476  Biso   1.000  H
  O55      1.0000 0.25000  0.41476  0.20235  Biso   1.000  O
  C55      1.0000 0.25000  0.36625  0.15780  Biso   1.000  C
  H55      1.0000 0.25000  0.36064  0.18476  Biso   1.000  H
  O56      1.0000 0.25000  0.16476  0.45235  Biso   1.000  O
  C56      1.0000 0.25000  0.11625  0.40780  Biso   1.000  C
  H56      1.0000 0.25000  0.11064  0.43476  Biso   1.000  H
  O57      1.0000 0.00000  0.41476  0.04765  Biso   1.000  O
  C57      1.0000 0.00000  0.36625  0.09220  Biso   1.000  C
  H57      1.0000 0.00000  0.36064  0.06524  Biso   1.000  H
  O58      1.0000 0.00000  0.16476  0.29765  Biso   1.000  O
  C58      1.0000 0.00000  0.11625  0.34220  Biso   1.000  C
  H58      1.0000 0.00000  0.11064  0.31524  Biso   1.000  H
  O59      1.0000 0.25000  0.41476  0.29765  Biso   1.000  O
  C59      1.0000 0.25000  0.36625  0.34220  Biso   1.000  C
  H59      1.0000 0.25000  0.36064  0.31524  Biso   1.000  H
  O60      1.0000 0.25000  0.16476  0.04765  Biso   1.000  O
  C60      1.0000 0.25000  0.11625  0.09220  Biso   1.000  C
  H60      1.0000 0.25000  0.11064  0.06524  Biso   1.000  H
  O61      1.0000 0.00000  0.08524  0.04765  Biso   1.000  O
  C61      1.0000 0.00000  0.13375  0.09220  Biso   1.000  C
  H61      1.0000 0.00000  0.13936  0.06524  Biso   1.000  H
  O62      1.0000 0.00000  0.33524  0.29765  Biso   1.000  O
  C62      1.0000 0.00000  0.38375  0.34220  Biso   1.000  C
  H62      1.0000 0.00000  0.38936  0.31524  Biso   1.000  H
  O63      1.0000 0.25000  0.08524  0.29765  Biso   1.000  O
  C63      1.0000 0.25000  0.13375  0.34220  Biso   1.000  C
  H63      1.0000 0.25000  0.13936  0.31524  Biso   1.000  H
  O64      1.0000 0.25000  0.33524  0.04765  Biso   1.000  O
  C64      1.0000 0.25000  0.38375  0.09220  Biso   1.000  C
  H64      1.0000 0.25000  0.38936  0.06524  Biso   1.000  H
  O65      1.0000 0.08524  0.04765  0.00000  Biso   1.000  O
  C65      1.0000 0.13375  0.09220  0.00000  Biso   1.000  C
  H65      1.0000 0.13936  0.06524  0.00000  Biso   1.000  H
  O66      1.0000 0.08524  0.29765  0.25000  Biso   1.000  O
  C66      1.0000 0.13375  0.34220  0.25000  Biso   1.000  C
  H66      1.0000 0.13936  0.31524  0.25000  Biso   1.000  H
  O67      1.0000 0.33524  0.04765  0.25000  Biso   1.000  O
  C67      1.0000 0.38375  0.09220  0.25000  Biso   1.000  C
  H67      1.0000 0.38936  0.06524  0.25000  Biso   1.000  H
  O68      1.0000 0.33524  0.29765  0.00000  Biso   1.000  O
  C68      1.0000 0.38375  0.34220  0.00000  Biso   1.000  C
  H68      1.0000 0.38936  0.31524  0.00000  Biso   1.000  H
  O69      1.0000 0.41476  0.04765  0.00000  Biso   1.000  O
  C69      1.0000 0.36625  0.09220  0.00000  Biso   1.000  C
  H69      1.0000 0.36064  0.06524  0.00000  Biso   1.000  H
  O70      1.0000 0.41476  0.29765  0.25000  Biso   1.000  O
  C70      1.0000 0.36625  0.34220  0.25000  Biso   1.000  C
  H70      1.0000 0.36064  0.31524  0.25000  Biso   1.000  H
  O71      1.0000 0.16476  0.04765  0.25000  Biso   1.000  O
  C71      1.0000 0.11625  0.09220  0.25000  Biso   1.000  C
  H71      1.0000 0.11064  0.06524  0.25000  Biso   1.000  H
  O72      1.0000 0.16476  0.29765  0.00000  Biso   1.000  O
  C72      1.0000 0.11625  0.34220  0.00000  Biso   1.000  C
  H72      1.0000 0.11064  0.31524  0.00000  Biso   1.000  H
  O73      1.0000 0.41476  0.45235  0.00000  Biso   1.000  O
  C73      1.0000 0.36625  0.40780  0.00000  Biso   1.000  C
  H73      1.0000 0.36064  0.43476  0.00000  Biso   1.000  H
  O74      1.0000 0.41476  0.20235  0.25000  Biso   1.000  O
  C74      1.0000 0.36625  0.15780  0.25000  Biso   1.000  C
  H74      1.0000 0.36064  0.18476  0.25000  Biso   1.000  H
  O75      1.0000 0.16476  0.45235  0.25000  Biso   1.000  O
  C75      1.0000 0.11625  0.40780  0.25000  Biso   1.000  C
  H75      1.0000 0.11064  0.43476  0.25000  Biso   1.000  H
  O76      1.0000 0.16476  0.20235  0.00000  Biso   1.000  O
  C76      1.0000 0.11625  0.15780  0.00000  Biso   1.000  C
  H76      1.0000 0.11064  0.18476  0.00000  Biso   1.000  H
  O77      1.0000 0.08524  0.45235  0.00000  Biso   1.000  O
  C77      1.0000 0.13375  0.40780  0.00000  Biso   1.000  C
  H77      1.0000 0.13936  0.43476  0.00000  Biso   1.000  H
  O78      1.0000 0.08524  0.20235  0.25000  Biso   1.000  O
  C78      1.0000 0.13375  0.15780  0.25000  Biso   1.000  C
  H78      1.0000 0.13936  0.18476  0.25000  Biso   1.000  H
  O79      1.0000 0.33524  0.45235  0.25000  Biso   1.000  O
  C79      1.0000 0.38375  0.40780  0.25000  Biso   1.000  C
  H79      1.0000 0.38936  0.43476  0.25000  Biso   1.000  H
  O80      1.0000 0.33524  0.20235  0.00000  Biso   1.000  O
  C80      1.0000 0.38375  0.15780  0.00000  Biso   1.000  C
  H80      1.0000 0.38936  0.18476  0.00000  Biso   1.000  H
  O81      1.0000 0.04765  0.00000  0.41476  Biso   1.000  O
  C81      1.0000 0.09220  0.00000  0.36625  Biso   1.000  C
  H81      1.0000 0.06524  0.00000  0.36064  Biso   1.000  H
  O82      1.0000 0.04765  0.25000  0.16476  Biso   1.000  O
  C82      1.0000 0.09220  0.25000  0.11625  Biso   1.000  C
  H82      1.0000 0.06524  0.25000  0.11064  Biso   1.000  H
  O83      1.0000 0.29765  0.00000  0.16476  Biso   1.000  O
  C83      1.0000 0.34220  0.00000  0.11625  Biso   1.000  C
  H83      1.0000 0.31524  0.00000  0.11064  Biso   1.000  H
  O84      1.0000 0.29765  0.25000  0.41476  Biso   1.000  O
  C84      1.0000 0.34220  0.25000  0.36625  Biso   1.000  C
  H84      1.0000 0.31524  0.25000  0.36064  Biso   1.000  H
  O85      1.0000 0.04765  0.00000  0.08524  Biso   1.000  O
  C85      1.0000 0.09220  0.00000  0.13375  Biso   1.000  C
  H85      1.0000 0.06524  0.00000  0.13936  Biso   1.000  H
  O86      1.0000 0.04765  0.25000  0.33524  Biso   1.000  O
  C86      1.0000 0.09220  0.25000  0.38375  Biso   1.000  C
  H86      1.0000 0.06524  0.25000  0.38936  Biso   1.000  H
  O87      1.0000 0.29765  0.00000  0.33524  Biso   1.000  O
  C87      1.0000 0.34220  0.00000  0.38375  Biso   1.000  C
  H87      1.0000 0.31524  0.00000  0.38936  Biso   1.000  H
  O88      1.0000 0.29765  0.25000  0.08524  Biso   1.000  O
  C88      1.0000 0.34220  0.25000  0.13375  Biso   1.000  C
  H88      1.0000 0.31524  0.25000  0.13936  Biso   1.000  H
  O89      1.0000 0.45235  0.00000  0.08524  Biso   1.000  O
  C89      1.0000 0.40780  0.00000  0.13375  Biso   1.000  C
  H89      1.0000 0.43476  0.00000  0.13936  Biso   1.000  H
  O90      1.0000 0.45235  0.25000  0.33524  Biso   1.000  O
  C90      1.0000 0.40780  0.25000  0.38375  Biso   1.000  C
  H90      1.0000 0.43476  0.25000  0.38936  Biso   1.000  H
  O91      1.0000 0.20235  0.00000  0.33524  Biso   1.000  O
  C91      1.0000 0.15780  0.00000  0.38375  Biso   1.000  C
  H91      1.0000 0.18476  0.00000  0.38936  Biso   1.000  H
  O92      1.0000 0.20235  0.25000  0.08524  Biso   1.000  O
  C92      1.0000 0.15780  0.25000  0.13375  Biso   1.000  C
  H92      1.0000 0.18476  0.25000  0.13936  Biso   1.000  H
  O93      1.0000 0.45235  0.00000  0.41476  Biso   1.000  O
  C93      1.0000 0.40780  0.00000  0.36625  Biso   1.000  C
  H93      1.0000 0.43476  0.00000  0.36064  Biso   1.000  H
  O94      1.0000 0.45235  0.25000  0.16476  Biso   1.000  O
  C94      1.0000 0.40780  0.25000  0.11625  Biso   1.000  C
  H94      1.0000 0.43476  0.25000  0.11064  Biso   1.000  H
  O95      1.0000 0.20235  0.00000  0.16476  Biso   1.000  O
  C95      1.0000 0.15780  0.00000  0.11625  Biso   1.000  C
  H95      1.0000 0.18476  0.00000  0.11064  Biso   1.000  H
  O96      1.0000 0.20235  0.25000  0.41476  Biso   1.000  O
  C96      1.0000 0.15780  0.25000  0.36625  Biso   1.000  C
  H96      1.0000 0.18476  0.25000  0.36064  Biso   1.000  H
  O97      1.0000 0.02805  0.22195  0.22195  Biso   1.000  O
  O98      1.0000 0.27805  0.47195  0.22195  Biso   1.000  O
  O99      1.0000 0.27805  0.22195  0.47195  Biso   1.000  O
  O100     1.0000 0.22195  0.02805  0.22195  Biso   1.000  O
  O101     1.0000 0.22195  0.27805  0.47195  Biso   1.000  O
  O102     1.0000 0.47195  0.47195  0.02805  Biso   1.000  O
  O103     1.0000 0.47195  0.22195  0.27805  Biso   1.000  O
  O104     1.0000 0.02805  0.02805  0.02805  Biso   1.000  O
  O105     1.0000 0.27805  0.27805  0.02805  Biso   1.000  O
  O106     1.0000 0.47195  0.02805  0.02805  Biso   1.000  O
  O107     1.0000 0.47195  0.27805  0.27805  Biso   1.000  O
  O108     1.0000 0.22195  0.02805  0.27805  Biso   1.000  O
  O109     1.0000 0.22195  0.27805  0.02805  Biso   1.000  O
  O110     1.0000 0.02805  0.47195  0.02805  Biso   1.000  O
  O111     1.0000 0.02805  0.22195  0.27805  Biso   1.000  O
  O112     1.0000 0.27805  0.47195  0.27805  Biso   1.000  O
  O113     1.0000 0.27805  0.22195  0.02805  Biso   1.000  O
  O114     1.0000 0.47195  0.47195  0.47195  Biso   1.000  O
  O115     1.0000 0.47195  0.22195  0.22195  Biso   1.000  O
  O116     1.0000 0.22195  0.47195  0.22195  Biso   1.000  O
  O117     1.0000 0.22195  0.22195  0.47195  Biso   1.000  O
  O118     1.0000 0.02805  0.02805  0.47195  Biso   1.000  O
  O119     1.0000 0.02805  0.27805  0.22195  Biso   1.000  O
  O120     1.0000 0.27805  0.02805  0.22195  Biso   1.000  O
  C97      1.0000 0.07680  0.00000  0.42320  Biso   1.000  C
  C98      1.0000 0.07680  0.25000  0.17320  Biso   1.000  C
  C99      1.0000 0.32680  0.00000  0.17320  Biso   1.000  C
  C100     1.0000 0.32680  0.25000  0.42320  Biso   1.000  C
  C101     1.0000 0.42320  0.00000  0.42320  Biso   1.000  C
  C102     1.0000 0.42320  0.25000  0.17320  Biso   1.000  C
  C103     1.0000 0.17320  0.00000  0.17320  Biso   1.000  C
  C104     1.0000 0.17320  0.25000  0.42320  Biso   1.000  C
  C105     1.0000 0.42320  0.00000  0.07680  Biso   1.000  C
  C106     1.0000 0.42320  0.25000  0.32680  Biso   1.000  C
  C107     1.0000 0.17320  0.00000  0.32680  Biso   1.000  C
  C108     1.0000 0.17320  0.25000  0.07680  Biso   1.000  C
  C109     1.0000 0.07680  0.00000  0.07680  Biso   1.000  C
  C110     1.0000 0.07680  0.25000  0.32680  Biso   1.000  C
  C111     1.0000 0.32680  0.00000  0.32680  Biso   1.000  C
  C112     1.0000 0.32680  0.25000  0.07680  Biso   1.000  C
  C113     1.0000 0.42320  0.07680  0.00000  Biso   1.000  C
  C114     1.0000 0.42320  0.32680  0.25000  Biso   1.000  C
  C115     1.0000 0.17320  0.07680  0.25000  Biso   1.000  C
  C116     1.0000 0.17320  0.32680  0.00000  Biso   1.000  C
  C117     1.0000 0.42320  0.42320  0.00000  Biso   1.000  C
  C118     1.0000 0.42320  0.17320  0.25000  Biso   1.000  C
  C119     1.0000 0.17320  0.42320  0.25000  Biso   1.000  C
  C120     1.0000 0.17320  0.17320  0.00000  Biso   1.000  C
  C121     1.0000 0.07680  0.42320  0.00000  Biso   1.000  C
  C122     1.0000 0.07680  0.17320  0.25000  Biso   1.000  C
  C123     1.0000 0.32680  0.42320  0.25000  Biso   1.000  C
  C124     1.0000 0.32680  0.17320  0.00000  Biso   1.000  C
  C125     1.0000 0.07680  0.07680  0.00000  Biso   1.000  C
  C126     1.0000 0.07680  0.32680  0.25000  Biso   1.000  C
  C127     1.0000 0.32680  0.07680  0.25000  Biso   1.000  C
  C128     1.0000 0.32680  0.32680  0.00000  Biso   1.000  C
  C129     1.0000 0.00000  0.42320  0.07680  Biso   1.000  C
  C130     1.0000 0.00000  0.17320  0.32680  Biso   1.000  C
  C131     1.0000 0.25000  0.42320  0.32680  Biso   1.000  C
  C132     1.0000 0.25000  0.17320  0.07680  Biso   1.000  C
  C133     1.0000 0.00000  0.42320  0.42320  Biso   1.000  C
  C134     1.0000 0.00000  0.17320  0.17320  Biso   1.000  C
  C135     1.0000 0.25000  0.42320  0.17320  Biso   1.000  C
  C136     1.0000 0.25000  0.17320  0.42320  Biso   1.000  C
  C137     1.0000 0.00000  0.07680  0.42320  Biso   1.000  C
  C138     1.0000 0.00000  0.32680  0.17320  Biso   1.000  C
  C139     1.0000 0.25000  0.07680  0.17320  Biso   1.000  C
  C140     1.0000 0.25000  0.32680  0.42320  Biso   1.000  C
  C141     1.0000 0.00000  0.07680  0.07680  Biso   1.000  C
  C142     1.0000 0.00000  0.32680  0.32680  Biso   1.000  C
  C143     1.0000 0.25000  0.07680  0.32680  Biso   1.000  C
  C144     1.0000 0.25000  0.32680  0.07680  Biso   1.000  C
  C145     1.0000 0.10250  0.00000  0.10250  Biso   1.000  C
  C146     1.0000 0.10250  0.25000  0.35250  Biso   1.000  C
  C147     1.0000 0.35250  0.00000  0.35250  Biso   1.000  C
  C148     1.0000 0.35250  0.25000  0.10250  Biso   1.000  C
  C149     1.0000 0.39750  0.00000  0.10250  Biso   1.000  C
  C150     1.0000 0.39750  0.25000  0.35250  Biso   1.000  C
  C151     1.0000 0.14750  0.00000  0.35250  Biso   1.000  C
  C152     1.0000 0.14750  0.25000  0.10250  Biso   1.000  C
  C153     1.0000 0.39750  0.00000  0.39750  Biso   1.000  C
  C154     1.0000 0.39750  0.25000  0.14750  Biso   1.000  C
  C155     1.0000 0.14750  0.00000  0.14750  Biso   1.000  C
  C156     1.0000 0.14750  0.25000  0.39750  Biso   1.000  C
  C157     1.0000 0.10250  0.00000  0.39750  Biso   1.000  C
  C158     1.0000 0.10250  0.25000  0.14750  Biso   1.000  C
  C159     1.0000 0.35250  0.00000  0.14750  Biso   1.000  C
  C160     1.0000 0.35250  0.25000  0.39750  Biso   1.000  C
  C161     1.0000 0.10250  0.10250  0.00000  Biso   1.000  C
  C162     1.0000 0.10250  0.35250  0.25000  Biso   1.000  C
  C163     1.0000 0.35250  0.10250  0.25000  Biso   1.000  C
  C164     1.0000 0.35250  0.35250  0.00000  Biso   1.000  C
  C165     1.0000 0.10250  0.39750  0.00000  Biso   1.000  C
  C166     1.0000 0.10250  0.14750  0.25000  Biso   1.000  C
  C167     1.0000 0.35250  0.39750  0.25000  Biso   1.000  C
  C168     1.0000 0.35250  0.14750  0.00000  Biso   1.000  C
  C169     1.0000 0.39750  0.39750  0.00000  Biso   1.000  C
  C170     1.0000 0.39750  0.14750  0.25000  Biso   1.000  C
  C171     1.0000 0.14750  0.39750  0.25000  Biso   1.000  C
  C172     1.0000 0.14750  0.14750  0.00000  Biso   1.000  C
  C173     1.0000 0.39750  0.10250  0.00000  Biso   1.000  C
  C174     1.0000 0.39750  0.35250  0.25000  Biso   1.000  C
  C175     1.0000 0.14750  0.10250  0.25000  Biso   1.000  C
  C176     1.0000 0.14750  0.35250  0.00000  Biso   1.000  C
  C177     1.0000 0.00000  0.10250  0.10250  Biso   1.000  C
  C178     1.0000 0.00000  0.35250  0.35250  Biso   1.000  C
  C179     1.0000 0.25000  0.10250  0.35250  Biso   1.000  C
  C180     1.0000 0.25000  0.35250  0.10250  Biso   1.000  C
  C181     1.0000 0.00000  0.10250  0.39750  Biso   1.000  C
  C182     1.0000 0.00000  0.35250  0.14750  Biso   1.000  C
  C183     1.0000 0.25000  0.10250  0.14750  Biso   1.000  C
  C184     1.0000 0.25000  0.35250  0.39750  Biso   1.000  C
  C185     1.0000 0.00000  0.39750  0.39750  Biso   1.000  C
  C186     1.0000 0.00000  0.14750  0.14750  Biso   1.000  C
  C187     1.0000 0.25000  0.39750  0.14750  Biso   1.000  C
  C188     1.0000 0.25000  0.14750  0.39750  Biso   1.000  C
  C189     1.0000 0.00000  0.39750  0.10250  Biso   1.000  C
  C190     1.0000 0.00000  0.14750  0.35250  Biso   1.000  C
  C191     1.0000 0.25000  0.39750  0.35250  Biso   1.000  C
  C192     1.0000 0.25000  0.14750  0.10250  Biso   1.000  C
  Zr25     1.0000 0.05994  0.00000  0.50000  Biso   1.000  Zr
  Zr26     1.0000 0.05994  0.25000  0.75000  Biso   1.000  Zr
  Zr27     1.0000 0.30995  0.00000  0.75000  Biso   1.000  Zr
  Zr28     1.0000 0.30995  0.25000  0.50000  Biso   1.000  Zr
  Zr29     1.0000 0.44005  0.00000  0.50000  Biso   1.000  Zr
  Zr30     1.0000 0.44005  0.25000  0.75000  Biso   1.000  Zr
  Zr31     1.0000 0.19006  0.00000  0.75000  Biso   1.000  Zr
  Zr32     1.0000 0.19006  0.25000  0.50000  Biso   1.000  Zr
  Zr33     1.0000 0.00000  0.05994  0.50000  Biso   1.000  Zr
  Zr34     1.0000 0.00000  0.30995  0.75000  Biso   1.000  Zr
  Zr35     1.0000 0.25000  0.05994  0.75000  Biso   1.000  Zr
  Zr36     1.0000 0.25000  0.30995  0.50000  Biso   1.000  Zr
  Zr37     1.0000 0.00000  0.44005  0.50000  Biso   1.000  Zr
  Zr38     1.0000 0.00000  0.19006  0.75000  Biso   1.000  Zr
  Zr39     1.0000 0.25000  0.44005  0.75000  Biso   1.000  Zr
  Zr40     1.0000 0.25000  0.19006  0.50000  Biso   1.000  Zr
  Zr41     1.0000 0.00000  0.00000  0.55994  Biso   1.000  Zr
  Zr42     1.0000 0.00000  0.25000  0.80994  Biso   1.000  Zr
  Zr43     1.0000 0.25000  0.00000  0.80994  Biso   1.000  Zr
  Zr44     1.0000 0.25000  0.25000  0.55994  Biso   1.000  Zr
  Zr45     1.0000 0.00000  0.00000  0.94005  Biso   1.000  Zr
  Zr46     1.0000 0.00000  0.25000  0.69005  Biso   1.000  Zr
  Zr47     1.0000 0.25000  0.00000  0.69005  Biso   1.000  Zr
  Zr48     1.0000 0.25000  0.25000  0.94005  Biso   1.000  Zr
  O121     1.0000 0.08524  0.00000  0.54765  Biso   1.000  O
  C193     1.0000 0.13375  0.00000  0.59220  Biso   1.000  C
  H97      1.0000 0.13936  0.00000  0.56524  Biso   1.000  H
  O122     1.0000 0.08524  0.25000  0.79765  Biso   1.000  O
  C194     1.0000 0.13375  0.25000  0.84220  Biso   1.000  C
  H98      1.0000 0.13936  0.25000  0.81524  Biso   1.000  H
  O123     1.0000 0.33524  0.00000  0.79765  Biso   1.000  O
  C195     1.0000 0.38375  0.00000  0.84220  Biso   1.000  C
  H99      1.0000 0.38936  0.00000  0.81524  Biso   1.000  H
  O124     1.0000 0.33524  0.25000  0.54765  Biso   1.000  O
  C196     1.0000 0.38375  0.25000  0.59220  Biso   1.000  C
  H100     1.0000 0.38936  0.25000  0.56524  Biso   1.000  H
  O125     1.0000 0.41476  0.00000  0.54765  Biso   1.000  O
  C197     1.0000 0.36625  0.00000  0.59220  Biso   1.000  C
  H101     1.0000 0.36064  0.00000  0.56524  Biso   1.000  H
  O126     1.0000 0.41476  0.25000  0.79765  Biso   1.000  O
  C198     1.0000 0.36625  0.25000  0.84220  Biso   1.000  C
  H102     1.0000 0.36064  0.25000  0.81524  Biso   1.000  H
  O127     1.0000 0.16476  0.00000  0.79765  Biso   1.000  O
  C199     1.0000 0.11625  0.00000  0.84220  Biso   1.000  C
  H103     1.0000 0.11064  0.00000  0.81524  Biso   1.000  H
  O128     1.0000 0.16476  0.25000  0.54765  Biso   1.000  O
  C200     1.0000 0.11625  0.25000  0.59220  Biso   1.000  C
  H104     1.0000 0.11064  0.25000  0.56524  Biso   1.000  H
  O129     1.0000 0.41476  0.00000  0.95235  Biso   1.000  O
  C201     1.0000 0.36625  0.00000  0.90780  Biso   1.000  C
  H105     1.0000 0.36064  0.00000  0.93476  Biso   1.000  H
  O130     1.0000 0.41476  0.25000  0.70235  Biso   1.000  O
  C202     1.0000 0.36625  0.25000  0.65780  Biso   1.000  C
  H106     1.0000 0.36064  0.25000  0.68476  Biso   1.000  H
  O131     1.0000 0.16476  0.00000  0.70235  Biso   1.000  O
  C203     1.0000 0.11625  0.00000  0.65780  Biso   1.000  C
  H107     1.0000 0.11064  0.00000  0.68476  Biso   1.000  H
  O132     1.0000 0.16476  0.25000  0.95235  Biso   1.000  O
  C204     1.0000 0.11625  0.25000  0.90780  Biso   1.000  C
  H108     1.0000 0.11064  0.25000  0.93476  Biso   1.000  H
  O133     1.0000 0.08524  0.00000  0.95235  Biso   1.000  O
  C205     1.0000 0.13375  0.00000  0.90780  Biso   1.000  C
  H109     1.0000 0.13936  0.00000  0.93476  Biso   1.000  H
  O134     1.0000 0.08524  0.25000  0.70235  Biso   1.000  O
  C206     1.0000 0.13375  0.25000  0.65780  Biso   1.000  C
  H110     1.0000 0.13936  0.25000  0.68476  Biso   1.000  H
  O135     1.0000 0.33524  0.00000  0.70235  Biso   1.000  O
  C207     1.0000 0.38375  0.00000  0.65780  Biso   1.000  C
  H111     1.0000 0.38936  0.00000  0.68476  Biso   1.000  H
  O136     1.0000 0.33524  0.25000  0.95235  Biso   1.000  O
  C208     1.0000 0.38375  0.25000  0.90780  Biso   1.000  C
  H112     1.0000 0.38936  0.25000  0.93476  Biso   1.000  H
  O137     1.0000 0.04765  0.08524  0.50000  Biso   1.000  O
  C209     1.0000 0.09220  0.13375  0.50000  Biso   1.000  C
  H113     1.0000 0.06524  0.13936  0.50000  Biso   1.000  H
  O138     1.0000 0.04765  0.33524  0.75000  Biso   1.000  O
  C210     1.0000 0.09220  0.38375  0.75000  Biso   1.000  C
  H114     1.0000 0.06524  0.38936  0.75000  Biso   1.000  H
  O139     1.0000 0.29765  0.08524  0.75000  Biso   1.000  O
  C211     1.0000 0.34220  0.13375  0.75000  Biso   1.000  C
  H115     1.0000 0.31524  0.13936  0.75000  Biso   1.000  H
  O140     1.0000 0.29765  0.33524  0.50000  Biso   1.000  O
  C212     1.0000 0.34220  0.38375  0.50000  Biso   1.000  C
  H116     1.0000 0.31524  0.38936  0.50000  Biso   1.000  H
  O141     1.0000 0.04765  0.41476  0.50000  Biso   1.000  O
  C213     1.0000 0.09220  0.36625  0.50000  Biso   1.000  C
  H117     1.0000 0.06524  0.36064  0.50000  Biso   1.000  H
  O142     1.0000 0.04765  0.16476  0.75000  Biso   1.000  O
  C214     1.0000 0.09220  0.11625  0.75000  Biso   1.000  C
  H118     1.0000 0.06524  0.11064  0.75000  Biso   1.000  H
  O143     1.0000 0.29765  0.41476  0.75000  Biso   1.000  O
  C215     1.0000 0.34220  0.36625  0.75000  Biso   1.000  C
  H119     1.0000 0.31524  0.36064  0.75000  Biso   1.000  H
  O144     1.0000 0.29765  0.16476  0.50000  Biso   1.000  O
  C216     1.0000 0.34220  0.11625  0.50000  Biso   1.000  C
  H120     1.0000 0.31524  0.11064  0.50000  Biso   1.000  H
  O145     1.0000 0.45235  0.41476  0.50000  Biso   1.000  O
  C217     1.0000 0.40780  0.36625  0.50000  Biso   1.000  C
  H121     1.0000 0.43476  0.36064  0.50000  Biso   1.000  H
  O146     1.0000 0.45235  0.16476  0.75000  Biso   1.000  O
  C218     1.0000 0.40780  0.11625  0.75000  Biso   1.000  C
  H122     1.0000 0.43476  0.11064  0.75000  Biso   1.000  H
  O147     1.0000 0.20235  0.41476  0.75000  Biso   1.000  O
  C219     1.0000 0.15780  0.36625  0.75000  Biso   1.000  C
  H123     1.0000 0.18476  0.36064  0.75000  Biso   1.000  H
  O148     1.0000 0.20235  0.16476  0.50000  Biso   1.000  O
  C220     1.0000 0.15780  0.11625  0.50000  Biso   1.000  C
  H124     1.0000 0.18476  0.11064  0.50000  Biso   1.000  H
  O149     1.0000 0.45235  0.08524  0.50000  Biso   1.000  O
  C221     1.0000 0.40780  0.13375  0.50000  Biso   1.000  C
  H125     1.0000 0.43476  0.13936  0.50000  Biso   1.000  H
  O150     1.0000 0.45235  0.33524  0.75000  Biso   1.000  O
  C222     1.0000 0.40780  0.38375  0.75000  Biso   1.000  C
  H126     1.0000 0.43476  0.38936  0.75000  Biso   1.000  H
  O151     1.0000 0.20235  0.08524  0.75000  Biso   1.000  O
  C223     1.0000 0.15780  0.13375  0.75000  Biso   1.000  C
  H127     1.0000 0.18476  0.13936  0.75000  Biso   1.000  H
  O152     1.0000 0.20235  0.33524  0.50000  Biso   1.000  O
  C224     1.0000 0.15780  0.38375  0.50000  Biso   1.000  C
  H128     1.0000 0.18476  0.38936  0.50000  Biso   1.000  H
  O153     1.0000 0.00000  0.04765  0.58523  Biso   1.000  O
  C225     1.0000 0.00000  0.09220  0.63375  Biso   1.000  C
  H129     1.0000 0.00000  0.06524  0.63936  Biso   1.000  H
  O154     1.0000 0.00000  0.29765  0.83524  Biso   1.000  O
  C226     1.0000 0.00000  0.34220  0.88375  Biso   1.000  C
  H130     1.0000 0.00000  0.31524  0.88936  Biso   1.000  H
  O155     1.0000 0.25000  0.04765  0.83524  Biso   1.000  O
  C227     1.0000 0.25000  0.09220  0.88375  Biso   1.000  C
  H131     1.0000 0.25000  0.06524  0.88936  Biso   1.000  H
  O156     1.0000 0.25000  0.29765  0.58523  Biso   1.000  O
  C228     1.0000 0.25000  0.34220  0.63375  Biso   1.000  C
  H132     1.0000 0.25000  0.31524  0.63936  Biso   1.000  H
  O157     1.0000 0.00000  0.04765  0.91477  Biso   1.000  O
  C229     1.0000 0.00000  0.09220  0.86625  Biso   1.000  C
  H133     1.0000 0.00000  0.06524  0.86064  Biso   1.000  H
  O158     1.0000 0.00000  0.29765  0.66476  Biso   1.000  O
  C230     1.0000 0.00000  0.34220  0.61625  Biso   1.000  C
  H134     1.0000 0.00000  0.31524  0.61064  Biso   1.000  H
  O159     1.0000 0.25000  0.04765  0.66476  Biso   1.000  O
  C231     1.0000 0.25000  0.09220  0.61625  Biso   1.000  C
  H135     1.0000 0.25000  0.06524  0.61064  Biso   1.000  H
  O160     1.0000 0.25000  0.29765  0.91477  Biso   1.000  O
  C232     1.0000 0.25000  0.34220  0.86625  Biso   1.000  C
  H136     1.0000 0.25000  0.31524  0.86064  Biso   1.000  H
  O161     1.0000 0.00000  0.45235  0.91477  Biso   1.000  O
  C233     1.0000 0.00000  0.40780  0.86625  Biso   1.000  C
  H137     1.0000 0.00000  0.43476  0.86064  Biso   1.000  H
  O162     1.0000 0.00000  0.20235  0.66476  Biso   1.000  O
  C234     1.0000 0.00000  0.15780  0.61625  Biso   1.000  C
  H138     1.0000 0.00000  0.18476  0.61064  Biso   1.000  H
  O163     1.0000 0.25000  0.45235  0.66476  Biso   1.000  O
  C235     1.0000 0.25000  0.40780  0.61625  Biso   1.000  C
  H139     1.0000 0.25000  0.43476  0.61064  Biso   1.000  H
  O164     1.0000 0.25000  0.20235  0.91477  Biso   1.000  O
  C236     1.0000 0.25000  0.15780  0.86625  Biso   1.000  C
  H140     1.0000 0.25000  0.18476  0.86064  Biso   1.000  H
  O165     1.0000 0.00000  0.45235  0.58523  Biso   1.000  O
  C237     1.0000 0.00000  0.40780  0.63375  Biso   1.000  C
  H141     1.0000 0.00000  0.43476  0.63936  Biso   1.000  H
  O166     1.0000 0.00000  0.20235  0.83524  Biso   1.000  O
  C238     1.0000 0.00000  0.15780  0.88375  Biso   1.000  C
  H142     1.0000 0.00000  0.18476  0.88936  Biso   1.000  H
  O167     1.0000 0.25000  0.45235  0.83524  Biso   1.000  O
  C239     1.0000 0.25000  0.40780  0.88375  Biso   1.000  C
  H143     1.0000 0.25000  0.43476  0.88936  Biso   1.000  H
  O168     1.0000 0.25000  0.20235  0.58523  Biso   1.000  O
  C240     1.0000 0.25000  0.15780  0.63375  Biso   1.000  C
  H144     1.0000 0.25000  0.18476  0.63936  Biso   1.000  H
  O169     1.0000 0.00000  0.08524  0.95235  Biso   1.000  O
  C241     1.0000 0.00000  0.13375  0.90780  Biso   1.000  C
  H145     1.0000 0.00000  0.13936  0.93476  Biso   1.000  H
  O170     1.0000 0.00000  0.33524  0.70235  Biso   1.000  O
  C242     1.0000 0.00000  0.38375  0.65780  Biso   1.000  C
  H146     1.0000 0.00000  0.38936  0.68476  Biso   1.000  H
  O171     1.0000 0.25000  0.08524  0.70235  Biso   1.000  O
  C243     1.0000 0.25000  0.13375  0.65780  Biso   1.000  C
  H147     1.0000 0.25000  0.13936  0.68476  Biso   1.000  H
  O172     1.0000 0.25000  0.33524  0.95235  Biso   1.000  O
  C244     1.0000 0.25000  0.38375  0.90780  Biso   1.000  C
  H148     1.0000 0.25000  0.38936  0.93476  Biso   1.000  H
  O173     1.0000 0.00000  0.41476  0.95235  Biso   1.000  O
  C245     1.0000 0.00000  0.36625  0.90780  Biso   1.000  C
  H149     1.0000 0.00000  0.36064  0.93476  Biso   1.000  H
  O174     1.0000 0.00000  0.16476  0.70235  Biso   1.000  O
  C246     1.0000 0.00000  0.11625  0.65780  Biso   1.000  C
  H150     1.0000 0.00000  0.11064  0.68476  Biso   1.000  H
  O175     1.0000 0.25000  0.41476  0.70235  Biso   1.000  O
  C247     1.0000 0.25000  0.36625  0.65780  Biso   1.000  C
  H151     1.0000 0.25000  0.36064  0.68476  Biso   1.000  H
  O176     1.0000 0.25000  0.16476  0.95235  Biso   1.000  O
  C248     1.0000 0.25000  0.11625  0.90780  Biso   1.000  C
  H152     1.0000 0.25000  0.11064  0.93476  Biso   1.000  H
  O177     1.0000 0.00000  0.41476  0.54765  Biso   1.000  O
  C249     1.0000 0.00000  0.36625  0.59220  Biso   1.000  C
  H153     1.0000 0.00000  0.36064  0.56524  Biso   1.000  H
  O178     1.0000 0.00000  0.16476  0.79765  Biso   1.000  O
  C250     1.0000 0.00000  0.11625  0.84220  Biso   1.000  C
  H154     1.0000 0.00000  0.11064  0.81524  Biso   1.000  H
  O179     1.0000 0.25000  0.41476  0.79765  Biso   1.000  O
  C251     1.0000 0.25000  0.36625  0.84220  Biso   1.000  C
  H155     1.0000 0.25000  0.36064  0.81524  Biso   1.000  H
  O180     1.0000 0.25000  0.16476  0.54765  Biso   1.000  O
  C252     1.0000 0.25000  0.11625  0.59220  Biso   1.000  C
  H156     1.0000 0.25000  0.11064  0.56524  Biso   1.000  H
  O181     1.0000 0.00000  0.08524  0.54765  Biso   1.000  O
  C253     1.0000 0.00000  0.13375  0.59220  Biso   1.000  C
  H157     1.0000 0.00000  0.13936  0.56524  Biso   1.000  H
  O182     1.0000 0.00000  0.33524  0.79765  Biso   1.000  O
  C254     1.0000 0.00000  0.38375  0.84220  Biso   1.000  C
  H158     1.0000 0.00000  0.38936  0.81524  Biso   1.000  H
  O183     1.0000 0.25000  0.08524  0.79765  Biso   1.000  O
  C255     1.0000 0.25000  0.13375  0.84220  Biso   1.000  C
  H159     1.0000 0.25000  0.13936  0.81524  Biso   1.000  H
  O184     1.0000 0.25000  0.33524  0.54765  Biso   1.000  O
  C256     1.0000 0.25000  0.38375  0.59220  Biso   1.000  C
  H160     1.0000 0.25000  0.38936  0.56524  Biso   1.000  H
  O185     1.0000 0.08524  0.04765  0.50000  Biso   1.000  O
  C257     1.0000 0.13375  0.09220  0.50000  Biso   1.000  C
  H161     1.0000 0.13936  0.06524  0.50000  Biso   1.000  H
  O186     1.0000 0.08524  0.29765  0.75000  Biso   1.000  O
  C258     1.0000 0.13375  0.34220  0.75000  Biso   1.000  C
  H162     1.0000 0.13936  0.31524  0.75000  Biso   1.000  H
  O187     1.0000 0.33524  0.04765  0.75000  Biso   1.000  O
  C259     1.0000 0.38375  0.09220  0.75000  Biso   1.000  C
  H163     1.0000 0.38936  0.06524  0.75000  Biso   1.000  H
  O188     1.0000 0.33524  0.29765  0.50000  Biso   1.000  O
  C260     1.0000 0.38375  0.34220  0.50000  Biso   1.000  C
  H164     1.0000 0.38936  0.31524  0.50000  Biso   1.000  H
  O189     1.0000 0.41476  0.04765  0.50000  Biso   1.000  O
  C261     1.0000 0.36625  0.09220  0.50000  Biso   1.000  C
  H165     1.0000 0.36064  0.06524  0.50000  Biso   1.000  H
  O190     1.0000 0.41476  0.29765  0.75000  Biso   1.000  O
  C262     1.0000 0.36625  0.34220  0.75000  Biso   1.000  C
  H166     1.0000 0.36064  0.31524  0.75000  Biso   1.000  H
  O191     1.0000 0.16476  0.04765  0.75000  Biso   1.000  O
  C263     1.0000 0.11625  0.09220  0.75000  Biso   1.000  C
  H167     1.0000 0.11064  0.06524  0.75000  Biso   1.000  H
  O192     1.0000 0.16476  0.29765  0.50000  Biso   1.000  O
  C264     1.0000 0.11625  0.34220  0.50000  Biso   1.000  C
  H168     1.0000 0.11064  0.31524  0.50000  Biso   1.000  H
  O193     1.0000 0.41476  0.45235  0.50000  Biso   1.000  O
  C265     1.0000 0.36625  0.40780  0.50000  Biso   1.000  C
  H169     1.0000 0.36064  0.43476  0.50000  Biso   1.000  H
  O194     1.0000 0.41476  0.20235  0.75000  Biso   1.000  O
  C266     1.0000 0.36625  0.15780  0.75000  Biso   1.000  C
  H170     1.0000 0.36064  0.18476  0.75000  Biso   1.000  H
  O195     1.0000 0.16476  0.45235  0.75000  Biso   1.000  O
  C267     1.0000 0.11625  0.40780  0.75000  Biso   1.000  C
  H171     1.0000 0.11064  0.43476  0.75000  Biso   1.000  H
  O196     1.0000 0.16476  0.20235  0.50000  Biso   1.000  O
  C268     1.0000 0.11625  0.15780  0.50000  Biso   1.000  C
  H172     1.0000 0.11064  0.18476  0.50000  Biso   1.000  H
  O197     1.0000 0.08524  0.45235  0.50000  Biso   1.000  O
  C269     1.0000 0.13375  0.40780  0.50000  Biso   1.000  C
  H173     1.0000 0.13936  0.43476  0.50000  Biso   1.000  H
  O198     1.0000 0.08524  0.20235  0.75000  Biso   1.000  O
  C270     1.0000 0.13375  0.15780  0.75000  Biso   1.000  C
  H174     1.0000 0.13936  0.18476  0.75000  Biso   1.000  H
  O199     1.0000 0.33524  0.45235  0.75000  Biso   1.000  O
  C271     1.0000 0.38375  0.40780  0.75000  Biso   1.000  C
  H175     1.0000 0.38936  0.43476  0.75000  Biso   1.000  H
  O200     1.0000 0.33524  0.20235  0.50000  Biso   1.000  O
  C272     1.0000 0.38375  0.15780  0.50000  Biso   1.000  C
  H176     1.0000 0.38936  0.18476  0.50000  Biso   1.000  H
  O201     1.0000 0.04765  0.00000  0.91477  Biso   1.000  O
  C273     1.0000 0.09220  0.00000  0.86625  Biso   1.000  C
  H177     1.0000 0.06524  0.00000  0.86064  Biso   1.000  H
  O202     1.0000 0.04765  0.25000  0.66476  Biso   1.000  O
  C274     1.0000 0.09220  0.25000  0.61625  Biso   1.000  C
  H178     1.0000 0.06524  0.25000  0.61064  Biso   1.000  H
  O203     1.0000 0.29765  0.00000  0.66476  Biso   1.000  O
  C275     1.0000 0.34220  0.00000  0.61625  Biso   1.000  C
  H179     1.0000 0.31524  0.00000  0.61064  Biso   1.000  H
  O204     1.0000 0.29765  0.25000  0.91477  Biso   1.000  O
  C276     1.0000 0.34220  0.25000  0.86625  Biso   1.000  C
  H180     1.0000 0.31524  0.25000  0.86064  Biso   1.000  H
  O205     1.0000 0.04765  0.00000  0.58523  Biso   1.000  O
  C277     1.0000 0.09220  0.00000  0.63375  Biso   1.000  C
  H181     1.0000 0.06524  0.00000  0.63936  Biso   1.000  H
  O206     1.0000 0.04765  0.25000  0.83524  Biso   1.000  O
  C278     1.0000 0.09220  0.25000  0.88375  Biso   1.000  C
  H182     1.0000 0.06524  0.25000  0.88936  Biso   1.000  H
  O207     1.0000 0.29765  0.00000  0.83524  Biso   1.000  O
  C279     1.0000 0.34220  0.00000  0.88375  Biso   1.000  C
  H183     1.0000 0.31524  0.00000  0.88936  Biso   1.000  H
  O208     1.0000 0.29765  0.25000  0.58523  Biso   1.000  O
  C280     1.0000 0.34220  0.25000  0.63375  Biso   1.000  C
  H184     1.0000 0.31524  0.25000  0.63936  Biso   1.000  H
  O209     1.0000 0.45235  0.00000  0.58523  Biso   1.000  O
  C281     1.0000 0.40780  0.00000  0.63375  Biso   1.000  C
  H185     1.0000 0.43476  0.00000  0.63936  Biso   1.000  H
  O210     1.0000 0.45235  0.25000  0.83524  Biso   1.000  O
  C282     1.0000 0.40780  0.25000  0.88375  Biso   1.000  C
  H186     1.0000 0.43476  0.25000  0.88936  Biso   1.000  H
  O211     1.0000 0.20235  0.00000  0.83524  Biso   1.000  O
  C283     1.0000 0.15780  0.00000  0.88375  Biso   1.000  C
  H187     1.0000 0.18476  0.00000  0.88936  Biso   1.000  H
  O212     1.0000 0.20235  0.25000  0.58523  Biso   1.000  O
  C284     1.0000 0.15780  0.25000  0.63375  Biso   1.000  C
  H188     1.0000 0.18476  0.25000  0.63936  Biso   1.000  H
  O213     1.0000 0.45235  0.00000  0.91477  Biso   1.000  O
  C285     1.0000 0.40780  0.00000  0.86625  Biso   1.000  C
  H189     1.0000 0.43476  0.00000  0.86064  Biso   1.000  H
  O214     1.0000 0.45235  0.25000  0.66476  Biso   1.000  O
  C286     1.0000 0.40780  0.25000  0.61625  Biso   1.000  C
  H190     1.0000 0.43476  0.25000  0.61064  Biso   1.000  H
  O215     1.0000 0.20235  0.00000  0.66476  Biso   1.000  O
  C287     1.0000 0.15780  0.00000  0.61625  Biso   1.000  C
  H191     1.0000 0.18476  0.00000  0.61064  Biso   1.000  H
  O216     1.0000 0.20235  0.25000  0.91477  Biso   1.000  O
  C288     1.0000 0.15780  0.25000  0.86625  Biso   1.000  C
  H192     1.0000 0.18476  0.25000  0.86064  Biso   1.000  H
  O217     1.0000 0.02805  0.22195  0.72195  Biso   1.000  O
  O218     1.0000 0.27805  0.47195  0.72195  Biso   1.000  O
  O219     1.0000 0.27805  0.22195  0.97195  Biso   1.000  O
  O220     1.0000 0.22195  0.02805  0.72195  Biso   1.000  O
  O221     1.0000 0.22195  0.27805  0.97195  Biso   1.000  O
  O222     1.0000 0.47195  0.47195  0.52805  Biso   1.000  O
  O223     1.0000 0.47195  0.22195  0.77805  Biso   1.000  O
  O224     1.0000 0.02805  0.02805  0.52805  Biso   1.000  O
  O225     1.0000 0.27805  0.27805  0.52805  Biso   1.000  O
  O226     1.0000 0.47195  0.02805  0.52805  Biso   1.000  O
  O227     1.0000 0.47195  0.27805  0.77805  Biso   1.000  O
  O228     1.0000 0.22195  0.02805  0.77805  Biso   1.000  O
  O229     1.0000 0.22195  0.27805  0.52805  Biso   1.000  O
  O230     1.0000 0.02805  0.47195  0.52805  Biso   1.000  O
  O231     1.0000 0.02805  0.22195  0.77805  Biso   1.000  O
  O232     1.0000 0.27805  0.47195  0.77805  Biso   1.000  O
  O233     1.0000 0.27805  0.22195  0.52805  Biso   1.000  O
  O234     1.0000 0.47195  0.47195  0.97195  Biso   1.000  O
  O235     1.0000 0.47195  0.22195  0.72195  Biso   1.000  O
  O236     1.0000 0.22195  0.47195  0.72195  Biso   1.000  O
  O237     1.0000 0.22195  0.22195  0.97195  Biso   1.000  O
  O238     1.0000 0.02805  0.02805  0.97195  Biso   1.000  O
  O239     1.0000 0.02805  0.27805  0.72195  Biso   1.000  O
  O240     1.0000 0.27805  0.02805  0.72195  Biso   1.000  O
  C289     1.0000 0.07680  0.00000  0.92320  Biso   1.000  C
  C290     1.0000 0.07680  0.25000  0.67320  Biso   1.000  C
  C291     1.0000 0.32680  0.00000  0.67320  Biso   1.000  C
  C292     1.0000 0.32680  0.25000  0.92320  Biso   1.000  C
  C293     1.0000 0.42320  0.00000  0.92320  Biso   1.000  C
  C294     1.0000 0.42320  0.25000  0.67320  Biso   1.000  C
  C295     1.0000 0.17320  0.00000  0.67320  Biso   1.000  C
  C296     1.0000 0.17320  0.25000  0.92320  Biso   1.000  C
  C297     1.0000 0.42320  0.00000  0.57680  Biso   1.000  C
  C298     1.0000 0.42320  0.25000  0.82680  Biso   1.000  C
  C299     1.0000 0.17320  0.00000  0.82680  Biso   1.000  C
  C300     1.0000 0.17320  0.25000  0.57680  Biso   1.000  C
  C301     1.0000 0.07680  0.00000  0.57680  Biso   1.000  C
  C302     1.0000 0.07680  0.25000  0.82680  Biso   1.000  C
  C303     1.0000 0.32680  0.00000  0.82680  Biso   1.000  C
  C304     1.0000 0.32680  0.25000  0.57680  Biso   1.000  C
  C305     1.0000 0.42320  0.07680  0.50000  Biso   1.000  C
  C306     1.0000 0.42320  0.32680  0.75000  Biso   1.000  C
  C307     1.0000 0.17320  0.07680  0.75000  Biso   1.000  C
  C308     1.0000 0.17320  0.32680  0.50000  Biso   1.000  C
  C309     1.0000 0.42320  0.42320  0.50000  Biso   1.000  C
  C310     1.0000 0.42320  0.17320  0.75000  Biso   1.000  C
  C311     1.0000 0.17320  0.42320  0.75000  Biso   1.000  C
  C312     1.0000 0.17320  0.17320  0.50000  Biso   1.000  C
  C313     1.0000 0.07680  0.42320  0.50000  Biso   1.000  C
  C314     1.0000 0.07680  0.17320  0.75000  Biso   1.000  C
  C315     1.0000 0.32680  0.42320  0.75000  Biso   1.000  C
  C316     1.0000 0.32680  0.17320  0.50000  Biso   1.000  C
  C317     1.0000 0.07680  0.07680  0.50000  Biso   1.000  C
  C318     1.0000 0.07680  0.32680  0.75000  Biso   1.000  C
  C319     1.0000 0.32680  0.07680  0.75000  Biso   1.000  C
  C320     1.0000 0.32680  0.32680  0.50000  Biso   1.000  C
  C321     1.0000 0.00000  0.42320  0.57680  Biso   1.000  C
  C322     1.0000 0.00000  0.17320  0.82680  Biso   1.000  C
  C323     1.0000 0.25000  0.42320  0.82680  Biso   1.000  C
  C324     1.0000 0.25000  0.17320  0.57680  Biso   1.000  C
  C325     1.0000 0.00000  0.42320  0.92320  Biso   1.000  C
  C326     1.0000 0.00000  0.17320  0.67320  Biso   1.000  C
  C327     1.0000 0.25000  0.42320  0.67320  Biso   1.000  C
  C328     1.0000 0.25000  0.17320  0.92320  Biso   1.000  C
  C329     1.0000 0.00000  0.07680  0.92320  Biso   1.000  C
  C330     1.0000 0.00000  0.32680  0.67320  Biso   1.000  C
  C331     1.0000 0.25000  0.07680  0.67320  Biso   1.000  C
  C332     1.0000 0.25000  0.32680  0.92320  Biso   1.000  C
  C333     1.0000 0.00000  0.07680  0.57680  Biso   1.000  C
  C334     1.0000 0.00000  0.32680  0.82680  Biso   1.000  C
  C335     1.0000 0.25000  0.07680  0.82680  Biso   1.000  C
  C336     1.0000 0.25000  0.32680  0.57680  Biso   1.000  C
  C337     1.0000 0.10250  0.00000  0.60250  Biso   1.000  C
  C338     1.0000 0.10250  0.25000  0.85250  Biso   1.000  C
  C339     1.0000 0.35250  0.00000  0.85250  Biso   1.000  C
  C340     1.0000 0.35250  0.25000  0.60250  Biso   1.000  C
  C341     1.0000 0.39750  0.00000  0.60250  Biso   1.000  C
  C342     1.0000 0.39750  0.25000  0.85250  Biso   1.000  C
  C343     1.0000 0.14750  0.00000  0.85250  Biso   1.000  C
  C344     1.0000 0.14750  0.25000  0.60250  Biso   1.000  C
  C345     1.0000 0.39750  0.00000  0.89750  Biso   1.000  C
  C346     1.0000 0.39750  0.25000  0.64750  Biso   1.000  C
  C347     1.0000 0.14750  0.00000  0.64750  Biso   1.000  C
  C348     1.0000 0.14750  0.25000  0.89750  Biso   1.000  C
  C349     1.0000 0.10250  0.00000  0.89750  Biso   1.000  C
  C350     1.0000 0.10250  0.25000  0.64750  Biso   1.000  C
  C351     1.0000 0.35250  0.00000  0.64750  Biso   1.000  C
  C352     1.0000 0.35250  0.25000  0.89750  Biso   1.000  C
  C353     1.0000 0.10250  0.10250  0.50000  Biso   1.000  C
  C354     1.0000 0.10250  0.35250  0.75000  Biso   1.000  C
  C355     1.0000 0.35250  0.10250  0.75000  Biso   1.000  C
  C356     1.0000 0.35250  0.35250  0.50000  Biso   1.000  C
  C357     1.0000 0.10250  0.39750  0.50000  Biso   1.000  C
  C358     1.0000 0.10250  0.14750  0.75000  Biso   1.000  C
  C359     1.0000 0.35250  0.39750  0.75000  Biso   1.000  C
  C360     1.0000 0.35250  0.14750  0.50000  Biso   1.000  C
  C361     1.0000 0.39750  0.39750  0.50000  Biso   1.000  C
  C362     1.0000 0.39750  0.14750  0.75000  Biso   1.000  C
  C363     1.0000 0.14750  0.39750  0.75000  Biso   1.000  C
  C364     1.0000 0.14750  0.14750  0.50000  Biso   1.000  C
  C365     1.0000 0.39750  0.10250  0.50000  Biso   1.000  C
  C366     1.0000 0.39750  0.35250  0.75000  Biso   1.000  C
  C367     1.0000 0.14750  0.10250  0.75000  Biso   1.000  C
  C368     1.0000 0.14750  0.35250  0.50000  Biso   1.000  C
  C369     1.0000 0.00000  0.10250  0.60250  Biso   1.000  C
  C370     1.0000 0.00000  0.35250  0.85250  Biso   1.000  C
  C371     1.0000 0.25000  0.10250  0.85250  Biso   1.000  C
  C372     1.0000 0.25000  0.35250  0.60250  Biso   1.000  C
  C373     1.0000 0.00000  0.10250  0.89750  Biso   1.000  C
  C374     1.0000 0.00000  0.35250  0.64750  Biso   1.000  C
  C375     1.0000 0.25000  0.10250  0.64750  Biso   1.000  C
  C376     1.0000 0.25000  0.35250  0.89750  Biso   1.000  C
  C377     1.0000 0.00000  0.39750  0.89750  Biso   1.000  C
  C378     1.0000 0.00000  0.14750  0.64750  Biso   1.000  C
  C379     1.0000 0.25000  0.39750  0.64750  Biso   1.000  C
  C380     1.0000 0.25000  0.14750  0.89750  Biso   1.000  C
  C381     1.0000 0.00000  0.39750  0.60250  Biso   1.000  C
  C382     1.0000 0.00000  0.14750  0.85250  Biso   1.000  C
  C383     1.0000 0.25000  0.39750  0.85250  Biso   1.000  C
  C384     1.0000 0.25000  0.14750  0.60250  Biso   1.000  C
  Zr49     1.0000 0.05994  0.50000  0.00000  Biso   1.000  Zr
  Zr50     1.0000 0.05994  0.75000  0.25000  Biso   1.000  Zr
  Zr51     1.0000 0.30995  0.50000  0.25000  Biso   1.000  Zr
  Zr52     1.0000 0.30995  0.75000  0.00000  Biso   1.000  Zr
  Zr53     1.0000 0.44005  0.50000  0.00000  Biso   1.000  Zr
  Zr54     1.0000 0.44005  0.75000  0.25000  Biso   1.000  Zr
  Zr55     1.0000 0.19006  0.50000  0.25000  Biso   1.000  Zr
  Zr56     1.0000 0.19006  0.75000  0.00000  Biso   1.000  Zr
  Zr57     1.0000 0.00000  0.55994  0.00000  Biso   1.000  Zr
  Zr58     1.0000 0.00000  0.80994  0.25000  Biso   1.000  Zr
  Zr59     1.0000 0.25000  0.55994  0.25000  Biso   1.000  Zr
  Zr60     1.0000 0.25000  0.80994  0.00000  Biso   1.000  Zr
  Zr61     1.0000 0.00000  0.94005  0.00000  Biso   1.000  Zr
  Zr62     1.0000 0.00000  0.69005  0.25000  Biso   1.000  Zr
  Zr63     1.0000 0.25000  0.94005  0.25000  Biso   1.000  Zr
  Zr64     1.0000 0.25000  0.69005  0.00000  Biso   1.000  Zr
  Zr65     1.0000 0.00000  0.50000  0.05994  Biso   1.000  Zr
  Zr66     1.0000 0.00000  0.75000  0.30995  Biso   1.000  Zr
  Zr67     1.0000 0.25000  0.50000  0.30995  Biso   1.000  Zr
  Zr68     1.0000 0.25000  0.75000  0.05994  Biso   1.000  Zr
  Zr69     1.0000 0.00000  0.50000  0.44005  Biso   1.000  Zr
  Zr70     1.0000 0.00000  0.75000  0.19006  Biso   1.000  Zr
  Zr71     1.0000 0.25000  0.50000  0.19006  Biso   1.000  Zr
  Zr72     1.0000 0.25000  0.75000  0.44005  Biso   1.000  Zr
  O241     1.0000 0.08524  0.50000  0.04765  Biso   1.000  O
  C385     1.0000 0.13375  0.50000  0.09220  Biso   1.000  C
  H193     1.0000 0.13936  0.50000  0.06524  Biso   1.000  H
  O242     1.0000 0.08524  0.75000  0.29765  Biso   1.000  O
  C386     1.0000 0.13375  0.75000  0.34220  Biso   1.000  C
  H194     1.0000 0.13936  0.75000  0.31524  Biso   1.000  H
  O243     1.0000 0.33524  0.50000  0.29765  Biso   1.000  O
  C387     1.0000 0.38375  0.50000  0.34220  Biso   1.000  C
  H195     1.0000 0.38936  0.50000  0.31524  Biso   1.000  H
  O244     1.0000 0.33524  0.75000  0.04765  Biso   1.000  O
  C388     1.0000 0.38375  0.75000  0.09220  Biso   1.000  C
  H196     1.0000 0.38936  0.75000  0.06524  Biso   1.000  H
  O245     1.0000 0.41476  0.50000  0.04765  Biso   1.000  O
  C389     1.0000 0.36625  0.50000  0.09220  Biso   1.000  C
  H197     1.0000 0.36064  0.50000  0.06524  Biso   1.000  H
  O246     1.0000 0.41476  0.75000  0.29765  Biso   1.000  O
  C390     1.0000 0.36625  0.75000  0.34220  Biso   1.000  C
  H198     1.0000 0.36064  0.75000  0.31524  Biso   1.000  H
  O247     1.0000 0.16476  0.50000  0.29765  Biso   1.000  O
  C391     1.0000 0.11625  0.50000  0.34220  Biso   1.000  C
  H199     1.0000 0.11064  0.50000  0.31524  Biso   1.000  H
  O248     1.0000 0.16476  0.75000  0.04765  Biso   1.000  O
  C392     1.0000 0.11625  0.75000  0.09220  Biso   1.000  C
  H200     1.0000 0.11064  0.75000  0.06524  Biso   1.000  H
  O249     1.0000 0.41476  0.50000  0.45235  Biso   1.000  O
  C393     1.0000 0.36625  0.50000  0.40780  Biso   1.000  C
  H201     1.0000 0.36064  0.50000  0.43476  Biso   1.000  H
  O250     1.0000 0.41476  0.75000  0.20235  Biso   1.000  O
  C394     1.0000 0.36625  0.75000  0.15780  Biso   1.000  C
  H202     1.0000 0.36064  0.75000  0.18476  Biso   1.000  H
  O251     1.0000 0.16476  0.50000  0.20235  Biso   1.000  O
  C395     1.0000 0.11625  0.50000  0.15780  Biso   1.000  C
  H203     1.0000 0.11064  0.50000  0.18476  Biso   1.000  H
  O252     1.0000 0.16476  0.75000  0.45235  Biso   1.000  O
  C396     1.0000 0.11625  0.75000  0.40780  Biso   1.000  C
  H204     1.0000 0.11064  0.75000  0.43476  Biso   1.000  H
  O253     1.0000 0.08524  0.50000  0.45235  Biso   1.000  O
  C397     1.0000 0.13375  0.50000  0.40780  Biso   1.000  C
  H205     1.0000 0.13936  0.50000  0.43476  Biso   1.000  H
  O254     1.0000 0.08524  0.75000  0.20235  Biso   1.000  O
  C398     1.0000 0.13375  0.75000  0.15780  Biso   1.000  C
  H206     1.0000 0.13936  0.75000  0.18476  Biso   1.000  H
  O255     1.0000 0.33524  0.50000  0.20235  Biso   1.000  O
  C399     1.0000 0.38375  0.50000  0.15780  Biso   1.000  C
  H207     1.0000 0.38936  0.50000  0.18476  Biso   1.000  H
  O256     1.0000 0.33524  0.75000  0.45235  Biso   1.000  O
  C400     1.0000 0.38375  0.75000  0.40780  Biso   1.000  C
  H208     1.0000 0.38936  0.75000  0.43476  Biso   1.000  H
  O257     1.0000 0.04765  0.58523  0.00000  Biso   1.000  O
  C401     1.0000 0.09220  0.63375  0.00000  Biso   1.000  C
  H209     1.0000 0.06524  0.63936  0.00000  Biso   1.000  H
  O258     1.0000 0.04765  0.83524  0.25000  Biso   1.000  O
  C402     1.0000 0.09220  0.88375  0.25000  Biso   1.000  C
  H210     1.0000 0.06524  0.88936  0.25000  Biso   1.000  H
  O259     1.0000 0.29765  0.58523  0.25000  Biso   1.000  O
  C403     1.0000 0.34220  0.63375  0.25000  Biso   1.000  C
  H211     1.0000 0.31524  0.63936  0.25000  Biso   1.000  H
  O260     1.0000 0.29765  0.83524  0.00000  Biso   1.000  O
  C404     1.0000 0.34220  0.88375  0.00000  Biso   1.000  C
  H212     1.0000 0.31524  0.88936  0.00000  Biso   1.000  H
  O261     1.0000 0.04765  0.91477  0.00000  Biso   1.000  O
  C405     1.0000 0.09220  0.86625  0.00000  Biso   1.000  C
  H213     1.0000 0.06524  0.86064  0.00000  Biso   1.000  H
  O262     1.0000 0.04765  0.66476  0.25000  Biso   1.000  O
  C406     1.0000 0.09220  0.61625  0.25000  Biso   1.000  C
  H214     1.0000 0.06524  0.61064  0.25000  Biso   1.000  H
  O263     1.0000 0.29765  0.91477  0.25000  Biso   1.000  O
  C407     1.0000 0.34220  0.86625  0.25000  Biso   1.000  C
  H215     1.0000 0.31524  0.86064  0.25000  Biso   1.000  H
  O264     1.0000 0.29765  0.66476  0.00000  Biso   1.000  O
  C408     1.0000 0.34220  0.61625  0.00000  Biso   1.000  C
  H216     1.0000 0.31524  0.61064  0.00000  Biso   1.000  H
  O265     1.0000 0.45235  0.91477  0.00000  Biso   1.000  O
  C409     1.0000 0.40780  0.86625  0.00000  Biso   1.000  C
  H217     1.0000 0.43476  0.86064  0.00000  Biso   1.000  H
  O266     1.0000 0.45235  0.66476  0.25000  Biso   1.000  O
  C410     1.0000 0.40780  0.61625  0.25000  Biso   1.000  C
  H218     1.0000 0.43476  0.61064  0.25000  Biso   1.000  H
  O267     1.0000 0.20235  0.91477  0.25000  Biso   1.000  O
  C411     1.0000 0.15780  0.86625  0.25000  Biso   1.000  C
  H219     1.0000 0.18476  0.86064  0.25000  Biso   1.000  H
  O268     1.0000 0.20235  0.66476  0.00000  Biso   1.000  O
  C412     1.0000 0.15780  0.61625  0.00000  Biso   1.000  C
  H220     1.0000 0.18476  0.61064  0.00000  Biso   1.000  H
  O269     1.0000 0.45235  0.58523  0.00000  Biso   1.000  O
  C413     1.0000 0.40780  0.63375  0.00000  Biso   1.000  C
  H221     1.0000 0.43476  0.63936  0.00000  Biso   1.000  H
  O270     1.0000 0.45235  0.83524  0.25000  Biso   1.000  O
  C414     1.0000 0.40780  0.88375  0.25000  Biso   1.000  C
  H222     1.0000 0.43476  0.88936  0.25000  Biso   1.000  H
  O271     1.0000 0.20235  0.58523  0.25000  Biso   1.000  O
  C415     1.0000 0.15780  0.63375  0.25000  Biso   1.000  C
  H223     1.0000 0.18476  0.63936  0.25000  Biso   1.000  H
  O272     1.0000 0.20235  0.83524  0.00000  Biso   1.000  O
  C416     1.0000 0.15780  0.88375  0.00000  Biso   1.000  C
  H224     1.0000 0.18476  0.88936  0.00000  Biso   1.000  H
  O273     1.0000 0.00000  0.54765  0.08524  Biso   1.000  O
  C417     1.0000 0.00000  0.59220  0.13375  Biso   1.000  C
  H225     1.0000 0.00000  0.56524  0.13936  Biso   1.000  H
  O274     1.0000 0.00000  0.79765  0.33524  Biso   1.000  O
  C418     1.0000 0.00000  0.84220  0.38375  Biso   1.000  C
  H226     1.0000 0.00000  0.81524  0.38936  Biso   1.000  H
  O275     1.0000 0.25000  0.54765  0.33524  Biso   1.000  O
  C419     1.0000 0.25000  0.59220  0.38375  Biso   1.000  C
  H227     1.0000 0.25000  0.56524  0.38936  Biso   1.000  H
  O276     1.0000 0.25000  0.79765  0.08524  Biso   1.000  O
  C420     1.0000 0.25000  0.84220  0.13375  Biso   1.000  C
  H228     1.0000 0.25000  0.81524  0.13936  Biso   1.000  H
  O277     1.0000 0.00000  0.54765  0.41476  Biso   1.000  O
  C421     1.0000 0.00000  0.59220  0.36625  Biso   1.000  C
  H229     1.0000 0.00000  0.56524  0.36064  Biso   1.000  H
  O278     1.0000 0.00000  0.79765  0.16476  Biso   1.000  O
  C422     1.0000 0.00000  0.84220  0.11625  Biso   1.000  C
  H230     1.0000 0.00000  0.81524  0.11064  Biso   1.000  H
  O279     1.0000 0.25000  0.54765  0.16476  Biso   1.000  O
  C423     1.0000 0.25000  0.59220  0.11625  Biso   1.000  C
  H231     1.0000 0.25000  0.56524  0.11064  Biso   1.000  H
  O280     1.0000 0.25000  0.79765  0.41476  Biso   1.000  O
  C424     1.0000 0.25000  0.84220  0.36625  Biso   1.000  C
  H232     1.0000 0.25000  0.81524  0.36064  Biso   1.000  H
  O281     1.0000 0.00000  0.95235  0.41476  Biso   1.000  O
  C425     1.0000 0.00000  0.90780  0.36625  Biso   1.000  C
  H233     1.0000 0.00000  0.93476  0.36064  Biso   1.000  H
  O282     1.0000 0.00000  0.70235  0.16476  Biso   1.000  O
  C426     1.0000 0.00000  0.65780  0.11625  Biso   1.000  C
  H234     1.0000 0.00000  0.68476  0.11064  Biso   1.000  H
  O283     1.0000 0.25000  0.95235  0.16476  Biso   1.000  O
  C427     1.0000 0.25000  0.90780  0.11625  Biso   1.000  C
  H235     1.0000 0.25000  0.93476  0.11064  Biso   1.000  H
  O284     1.0000 0.25000  0.70235  0.41476  Biso   1.000  O
  C428     1.0000 0.25000  0.65780  0.36625  Biso   1.000  C
  H236     1.0000 0.25000  0.68476  0.36064  Biso   1.000  H
  O285     1.0000 0.00000  0.95235  0.08524  Biso   1.000  O
  C429     1.0000 0.00000  0.90780  0.13375  Biso   1.000  C
  H237     1.0000 0.00000  0.93476  0.13936  Biso   1.000  H
  O286     1.0000 0.00000  0.70235  0.33524  Biso   1.000  O
  C430     1.0000 0.00000  0.65780  0.38375  Biso   1.000  C
  H238     1.0000 0.00000  0.68476  0.38936  Biso   1.000  H
  O287     1.0000 0.25000  0.95235  0.33524  Biso   1.000  O
  C431     1.0000 0.25000  0.90780  0.38375  Biso   1.000  C
  H239     1.0000 0.25000  0.93476  0.38936  Biso   1.000  H
  O288     1.0000 0.25000  0.70235  0.08524  Biso   1.000  O
  C432     1.0000 0.25000  0.65780  0.13375  Biso   1.000  C
  H240     1.0000 0.25000  0.68476  0.13936  Biso   1.000  H
  O289     1.0000 0.00000  0.58523  0.45235  Biso   1.000  O
  C433     1.0000 0.00000  0.63375  0.40780  Biso   1.000  C
  H241     1.0000 0.00000  0.63936  0.43476  Biso   1.000  H
  O290     1.0000 0.00000  0.83524  0.20235  Biso   1.000  O
  C434     1.0000 0.00000  0.88375  0.15780  Biso   1.000  C
  H242     1.0000 0.00000  0.88936  0.18476  Biso   1.000  H
  O291     1.0000 0.25000  0.58523  0.20235  Biso   1.000  O
  C435     1.0000 0.25000  0.63375  0.15780  Biso   1.000  C
  H243     1.0000 0.25000  0.63936  0.18476  Biso   1.000  H
  O292     1.0000 0.25000  0.83524  0.45235  Biso   1.000  O
  C436     1.0000 0.25000  0.88375  0.40780  Biso   1.000  C
  H244     1.0000 0.25000  0.88936  0.43476  Biso   1.000  H
  O293     1.0000 0.00000  0.91477  0.45235  Biso   1.000  O
  C437     1.0000 0.00000  0.86625  0.40780  Biso   1.000  C
  H245     1.0000 0.00000  0.86064  0.43476  Biso   1.000  H
  O294     1.0000 0.00000  0.66476  0.20235  Biso   1.000  O
  C438     1.0000 0.00000  0.61625  0.15780  Biso   1.000  C
  H246     1.0000 0.00000  0.61064  0.18476  Biso   1.000  H
  O295     1.0000 0.25000  0.91477  0.20235  Biso   1.000  O
  C439     1.0000 0.25000  0.86625  0.15780  Biso   1.000  C
  H247     1.0000 0.25000  0.86064  0.18476  Biso   1.000  H
  O296     1.0000 0.25000  0.66476  0.45235  Biso   1.000  O
  C440     1.0000 0.25000  0.61625  0.40780  Biso   1.000  C
  H248     1.0000 0.25000  0.61064  0.43476  Biso   1.000  H
  O297     1.0000 0.00000  0.91477  0.04765  Biso   1.000  O
  C441     1.0000 0.00000  0.86625  0.09220  Biso   1.000  C
  H249     1.0000 0.00000  0.86064  0.06524  Biso   1.000  H
  O298     1.0000 0.00000  0.66476  0.29765  Biso   1.000  O
  C442     1.0000 0.00000  0.61625  0.34220  Biso   1.000  C
  H250     1.0000 0.00000  0.61064  0.31524  Biso   1.000  H
  O299     1.0000 0.25000  0.91477  0.29765  Biso   1.000  O
  C443     1.0000 0.25000  0.86625  0.34220  Biso   1.000  C
  H251     1.0000 0.25000  0.86064  0.31524  Biso   1.000  H
  O300     1.0000 0.25000  0.66476  0.04765  Biso   1.000  O
  C444     1.0000 0.25000  0.61625  0.09220  Biso   1.000  C
  H252     1.0000 0.25000  0.61064  0.06524  Biso   1.000  H
  O301     1.0000 0.00000  0.58523  0.04765  Biso   1.000  O
  C445     1.0000 0.00000  0.63375  0.09220  Biso   1.000  C
  H253     1.0000 0.00000  0.63936  0.06524  Biso   1.000  H
  O302     1.0000 0.00000  0.83524  0.29765  Biso   1.000  O
  C446     1.0000 0.00000  0.88375  0.34220  Biso   1.000  C
  H254     1.0000 0.00000  0.88936  0.31524  Biso   1.000  H
  O303     1.0000 0.25000  0.58523  0.29765  Biso   1.000  O
  C447     1.0000 0.25000  0.63375  0.34220  Biso   1.000  C
  H255     1.0000 0.25000  0.63936  0.31524  Biso   1.000  H
  O304     1.0000 0.25000  0.83524  0.04765  Biso   1.000  O
  C448     1.0000 0.25000  0.88375  0.09220  Biso   1.000  C
  H256     1.0000 0.25000  0.88936  0.06524  Biso   1.000  H
  O305     1.0000 0.08524  0.54765  0.00000  Biso   1.000  O
  C449     1.0000 0.13375  0.59220  0.00000  Biso   1.000  C
  H257     1.0000 0.13936  0.56524  0.00000  Biso   1.000  H
  O306     1.0000 0.08524  0.79765  0.25000  Biso   1.000  O
  C450     1.0000 0.13375  0.84220  0.25000  Biso   1.000  C
  H258     1.0000 0.13936  0.81524  0.25000  Biso   1.000  H
  O307     1.0000 0.33524  0.54765  0.25000  Biso   1.000  O
  C451     1.0000 0.38375  0.59220  0.25000  Biso   1.000  C
  H259     1.0000 0.38936  0.56524  0.25000  Biso   1.000  H
  O308     1.0000 0.33524  0.79765  0.00000  Biso   1.000  O
  C452     1.0000 0.38375  0.84220  0.00000  Biso   1.000  C
  H260     1.0000 0.38936  0.81524  0.00000  Biso   1.000  H
  O309     1.0000 0.41476  0.54765  0.00000  Biso   1.000  O
  C453     1.0000 0.36625  0.59220  0.00000  Biso   1.000  C
  H261     1.0000 0.36064  0.56524  0.00000  Biso   1.000  H
  O310     1.0000 0.41476  0.79765  0.25000  Biso   1.000  O
  C454     1.0000 0.36625  0.84220  0.25000  Biso   1.000  C
  H262     1.0000 0.36064  0.81524  0.25000  Biso   1.000  H
  O311     1.0000 0.16476  0.54765  0.25000  Biso   1.000  O
  C455     1.0000 0.11625  0.59220  0.25000  Biso   1.000  C
  H263     1.0000 0.11064  0.56524  0.25000  Biso   1.000  H
  O312     1.0000 0.16476  0.79765  0.00000  Biso   1.000  O
  C456     1.0000 0.11625  0.84220  0.00000  Biso   1.000  C
  H264     1.0000 0.11064  0.81524  0.00000  Biso   1.000  H
  O313     1.0000 0.41476  0.95235  0.00000  Biso   1.000  O
  C457     1.0000 0.36625  0.90780  0.00000  Biso   1.000  C
  H265     1.0000 0.36064  0.93476  0.00000  Biso   1.000  H
  O314     1.0000 0.41476  0.70235  0.25000  Biso   1.000  O
  C458     1.0000 0.36625  0.65780  0.25000  Biso   1.000  C
  H266     1.0000 0.36064  0.68476  0.25000  Biso   1.000  H
  O315     1.0000 0.16476  0.95235  0.25000  Biso   1.000  O
  C459     1.0000 0.11625  0.90780  0.25000  Biso   1.000  C
  H267     1.0000 0.11064  0.93476  0.25000  Biso   1.000  H
  O316     1.0000 0.16476  0.70235  0.00000  Biso   1.000  O
  C460     1.0000 0.11625  0.65780  0.00000  Biso   1.000  C
  H268     1.0000 0.11064  0.68476  0.00000  Biso   1.000  H
  O317     1.0000 0.08524  0.95235  0.00000  Biso   1.000  O
  C461     1.0000 0.13375  0.90780  0.00000  Biso   1.000  C
  H269     1.0000 0.13936  0.93476  0.00000  Biso   1.000  H
  O318     1.0000 0.08524  0.70235  0.25000  Biso   1.000  O
  C462     1.0000 0.13375  0.65780  0.25000  Biso   1.000  C
  H270     1.0000 0.13936  0.68476  0.25000  Biso   1.000  H
  O319     1.0000 0.33524  0.95235  0.25000  Biso   1.000  O
  C463     1.0000 0.38375  0.90780  0.25000  Biso   1.000  C
  H271     1.0000 0.38936  0.93476  0.25000  Biso   1.000  H
  O320     1.0000 0.33524  0.70235  0.00000  Biso   1.000  O
  C464     1.0000 0.38375  0.65780  0.00000  Biso   1.000  C
  H272     1.0000 0.38936  0.68476  0.00000  Biso   1.000  H
  O321     1.0000 0.04765  0.50000  0.41476  Biso   1.000  O
  C465     1.0000 0.09220  0.50000  0.36625  Biso   1.000  C
  H273     1.0000 0.06524  0.50000  0.36064  Biso   1.000  H
  O322     1.0000 0.04765  0.75000  0.16476  Biso   1.000  O
  C466     1.0000 0.09220  0.75000  0.11625  Biso   1.000  C
  H274     1.0000 0.06524  0.75000  0.11064  Biso   1.000  H
  O323     1.0000 0.29765  0.50000  0.16476  Biso   1.000  O
  C467     1.0000 0.34220  0.50000  0.11625  Biso   1.000  C
  H275     1.0000 0.31524  0.50000  0.11064  Biso   1.000  H
  O324     1.0000 0.29765  0.75000  0.41476  Biso   1.000  O
  C468     1.0000 0.34220  0.75000  0.36625  Biso   1.000  C
  H276     1.0000 0.31524  0.75000  0.36064  Biso   1.000  H
  O325     1.0000 0.04765  0.50000  0.08524  Biso   1.000  O
  C469     1.0000 0.09220  0.50000  0.13375  Biso   1.000  C
  H277     1.0000 0.06524  0.50000  0.13936  Biso   1.000  H
  O326     1.0000 0.04765  0.75000  0.33524  Biso   1.000  O
  C470     1.0000 0.09220  0.75000  0.38375  Biso   1.000  C
  H278     1.0000 0.06524  0.75000  0.38936  Biso   1.000  H
  O327     1.0000 0.29765  0.50000  0.33524  Biso   1.000  O
  C471     1.0000 0.34220  0.50000  0.38375  Biso   1.000  C
  H279     1.0000 0.31524  0.50000  0.38936  Biso   1.000  H
  O328     1.0000 0.29765  0.75000  0.08524  Biso   1.000  O
  C472     1.0000 0.34220  0.75000  0.13375  Biso   1.000  C
  H280     1.0000 0.31524  0.75000  0.13936  Biso   1.000  H
  O329     1.0000 0.45235  0.50000  0.08524  Biso   1.000  O
  C473     1.0000 0.40780  0.50000  0.13375  Biso   1.000  C
  H281     1.0000 0.43476  0.50000  0.13936  Biso   1.000  H
  O330     1.0000 0.45235  0.75000  0.33524  Biso   1.000  O
  C474     1.0000 0.40780  0.75000  0.38375  Biso   1.000  C
  H282     1.0000 0.43476  0.75000  0.38936  Biso   1.000  H
  O331     1.0000 0.20235  0.50000  0.33524  Biso   1.000  O
  C475     1.0000 0.15780  0.50000  0.38375  Biso   1.000  C
  H283     1.0000 0.18476  0.50000  0.38936  Biso   1.000  H
  O332     1.0000 0.20235  0.75000  0.08524  Biso   1.000  O
  C476     1.0000 0.15780  0.75000  0.13375  Biso   1.000  C
  H284     1.0000 0.18476  0.75000  0.13936  Biso   1.000  H
  O333     1.0000 0.45235  0.50000  0.41476  Biso   1.000  O
  C477     1.0000 0.40780  0.50000  0.36625  Biso   1.000  C
  H285     1.0000 0.43476  0.50000  0.36064  Biso   1.000  H
  O334     1.0000 0.45235  0.75000  0.16476  Biso   1.000  O
  C478     1.0000 0.40780  0.75000  0.11625  Biso   1.000  C
  H286     1.0000 0.43476  0.75000  0.11064  Biso   1.000  H
  O335     1.0000 0.20235  0.50000  0.16476  Biso   1.000  O
  C479     1.0000 0.15780  0.50000  0.11625  Biso   1.000  C
  H287     1.0000 0.18476  0.50000  0.11064  Biso   1.000  H
  O336     1.0000 0.20235  0.75000  0.41476  Biso   1.000  O
  C480     1.0000 0.15780  0.75000  0.36625  Biso   1.000  C
  H288     1.0000 0.18476  0.75000  0.36064  Biso   1.000  H
  O337     1.0000 0.02805  0.72195  0.22195  Biso   1.000  O
  O338     1.0000 0.27805  0.97195  0.22195  Biso   1.000  O
  O339     1.0000 0.27805  0.72195  0.47195  Biso   1.000  O
  O340     1.0000 0.22195  0.52805  0.22195  Biso   1.000  O
  O341     1.0000 0.22195  0.77805  0.47195  Biso   1.000  O
  O342     1.0000 0.47195  0.97195  0.02805  Biso   1.000  O
  O343     1.0000 0.47195  0.72195  0.27805  Biso   1.000  O
  O344     1.0000 0.02805  0.52805  0.02805  Biso   1.000  O
  O345     1.0000 0.27805  0.77805  0.02805  Biso   1.000  O
  O346     1.0000 0.47195  0.52805  0.02805  Biso   1.000  O
  O347     1.0000 0.47195  0.77805  0.27805  Biso   1.000  O
  O348     1.0000 0.22195  0.52805  0.27805  Biso   1.000  O
  O349     1.0000 0.22195  0.77805  0.02805  Biso   1.000  O
  O350     1.0000 0.02805  0.97195  0.02805  Biso   1.000  O
  O351     1.0000 0.02805  0.72195  0.27805  Biso   1.000  O
  O352     1.0000 0.27805  0.97195  0.27805  Biso   1.000  O
  O353     1.0000 0.27805  0.72195  0.02805  Biso   1.000  O
  O354     1.0000 0.47195  0.97195  0.47195  Biso   1.000  O
  O355     1.0000 0.47195  0.72195  0.22195  Biso   1.000  O
  O356     1.0000 0.22195  0.97195  0.22195  Biso   1.000  O
  O357     1.0000 0.22195  0.72195  0.47195  Biso   1.000  O
  O358     1.0000 0.02805  0.52805  0.47195  Biso   1.000  O
  O359     1.0000 0.02805  0.77805  0.22195  Biso   1.000  O
  O360     1.0000 0.27805  0.52805  0.22195  Biso   1.000  O
  C481     1.0000 0.07680  0.50000  0.42320  Biso   1.000  C
  C482     1.0000 0.07680  0.75000  0.17320  Biso   1.000  C
  C483     1.0000 0.32680  0.50000  0.17320  Biso   1.000  C
  C484     1.0000 0.32680  0.75000  0.42320  Biso   1.000  C
  C485     1.0000 0.42320  0.50000  0.42320  Biso   1.000  C
  C486     1.0000 0.42320  0.75000  0.17320  Biso   1.000  C
  C487     1.0000 0.17320  0.50000  0.17320  Biso   1.000  C
  C488     1.0000 0.17320  0.75000  0.42320  Biso   1.000  C
  C489     1.0000 0.42320  0.50000  0.07680  Biso   1.000  C
  C490     1.0000 0.42320  0.75000  0.32680  Biso   1.000  C
  C491     1.0000 0.17320  0.50000  0.32680  Biso   1.000  C
  C492     1.0000 0.17320  0.75000  0.07680  Biso   1.000  C
  C493     1.0000 0.07680  0.50000  0.07680  Biso   1.000  C
  C494     1.0000 0.07680  0.75000  0.32680  Biso   1.000  C
  C495     1.0000 0.32680  0.50000  0.32680  Biso   1.000  C
  C496     1.0000 0.32680  0.75000  0.07680  Biso   1.000  C
  C497     1.0000 0.42320  0.57680  0.00000  Biso   1.000  C
  C498     1.0000 0.42320  0.82680  0.25000  Biso   1.000  C
  C499     1.0000 0.17320  0.57680  0.25000  Biso   1.000  C
  C500     1.0000 0.17320  0.82680  0.00000  Biso   1.000  C
  C501     1.0000 0.42320  0.92320  0.00000  Biso   1.000  C
  C502     1.0000 0.42320  0.67320  0.25000  Biso   1.000  C
  C503     1.0000 0.17320  0.92320  0.25000  Biso   1.000  C
  C504     1.0000 0.17320  0.67320  0.00000  Biso   1.000  C
  C505     1.0000 0.07680  0.92320  0.00000  Biso   1.000  C
  C506     1.0000 0.07680  0.67320  0.25000  Biso   1.000  C
  C507     1.0000 0.32680  0.92320  0.25000  Biso   1.000  C
  C508     1.0000 0.32680  0.67320  0.00000  Biso   1.000  C
  C509     1.0000 0.07680  0.57680  0.00000  Biso   1.000  C
  C510     1.0000 0.07680  0.82680  0.25000  Biso   1.000  C
  C511     1.0000 0.32680  0.57680  0.25000  Biso   1.000  C
  C512     1.0000 0.32680  0.82680  0.00000  Biso   1.000  C
  C513     1.0000 0.00000  0.92320  0.07680  Biso   1.000  C
  C514     1.0000 0.00000  0.67320  0.32680  Biso   1.000  C
  C515     1.0000 0.25000  0.92320  0.32680  Biso   1.000  C
  C516     1.0000 0.25000  0.67320  0.07680  Biso   1.000  C
  C517     1.0000 0.00000  0.92320  0.42320  Biso   1.000  C
  C518     1.0000 0.00000  0.67320  0.17320  Biso   1.000  C
  C519     1.0000 0.25000  0.92320  0.17320  Biso   1.000  C
  C520     1.0000 0.25000  0.67320  0.42320  Biso   1.000  C
  C521     1.0000 0.00000  0.57680  0.42320  Biso   1.000  C
  C522     1.0000 0.00000  0.82680  0.17320  Biso   1.000  C
  C523     1.0000 0.25000  0.57680  0.17320  Biso   1.000  C
  C524     1.0000 0.25000  0.82680  0.42320  Biso   1.000  C
  C525     1.0000 0.00000  0.57680  0.07680  Biso   1.000  C
  C526     1.0000 0.00000  0.82680  0.32680  Biso   1.000  C
  C527     1.0000 0.25000  0.57680  0.32680  Biso   1.000  C
  C528     1.0000 0.25000  0.82680  0.07680  Biso   1.000  C
  C529     1.0000 0.10250  0.50000  0.10250  Biso   1.000  C
  C530     1.0000 0.10250  0.75000  0.35250  Biso   1.000  C
  C531     1.0000 0.35250  0.50000  0.35250  Biso   1.000  C
  C532     1.0000 0.35250  0.75000  0.10250  Biso   1.000  C
  C533     1.0000 0.39750  0.50000  0.10250  Biso   1.000  C
  C534     1.0000 0.39750  0.75000  0.35250  Biso   1.000  C
  C535     1.0000 0.14750  0.50000  0.35250  Biso   1.000  C
  C536     1.0000 0.14750  0.75000  0.10250  Biso   1.000  C
  C537     1.0000 0.39750  0.50000  0.39750  Biso   1.000  C
  C538     1.0000 0.39750  0.75000  0.14750  Biso   1.000  C
  C539     1.0000 0.14750  0.50000  0.14750  Biso   1.000  C
  C540     1.0000 0.14750  0.75000  0.39750  Biso   1.000  C
  C541     1.0000 0.10250  0.50000  0.39750  Biso   1.000  C
  C542     1.0000 0.10250  0.75000  0.14750  Biso   1.000  C
  C543     1.0000 0.35250  0.50000  0.14750  Biso   1.000  C
  C544     1.0000 0.35250  0.75000  0.39750  Biso   1.000  C
  C545     1.0000 0.10250  0.60250  0.00000  Biso   1.000  C
  C546     1.0000 0.10250  0.85250  0.25000  Biso   1.000  C
  C547     1.0000 0.35250  0.60250  0.25000  Biso   1.000  C
  C548     1.0000 0.35250  0.85250  0.00000  Biso   1.000  C
  C549     1.0000 0.10250  0.89750  0.00000  Biso   1.000  C
  C550     1.0000 0.10250  0.64750  0.25000  Biso   1.000  C
  C551     1.0000 0.35250  0.89750  0.25000  Biso   1.000  C
  C552     1.0000 0.35250  0.64750  0.00000  Biso   1.000  C
  C553     1.0000 0.39750  0.89750  0.00000  Biso   1.000  C
  C554     1.0000 0.39750  0.64750  0.25000  Biso   1.000  C
  C555     1.0000 0.14750  0.89750  0.25000  Biso   1.000  C
  C556     1.0000 0.14750  0.64750  0.00000  Biso   1.000  C
  C557     1.0000 0.39750  0.60250  0.00000  Biso   1.000  C
  C558     1.0000 0.39750  0.85250  0.25000  Biso   1.000  C
  C559     1.0000 0.14750  0.60250  0.25000  Biso   1.000  C
  C560     1.0000 0.14750  0.85250  0.00000  Biso   1.000  C
  C561     1.0000 0.00000  0.60250  0.10250  Biso   1.000  C
  C562     1.0000 0.00000  0.85250  0.35250  Biso   1.000  C
  C563     1.0000 0.25000  0.60250  0.35250  Biso   1.000  C
  C564     1.0000 0.25000  0.85250  0.10250  Biso   1.000  C
  C565     1.0000 0.00000  0.60250  0.39750  Biso   1.000  C
  C566     1.0000 0.00000  0.85250  0.14750  Biso   1.000  C
  C567     1.0000 0.25000  0.60250  0.14750  Biso   1.000  C
  C568     1.0000 0.25000  0.85250  0.39750  Biso   1.000  C
  C569     1.0000 0.00000  0.89750  0.39750  Biso   1.000  C
  C570     1.0000 0.00000  0.64750  0.14750  Biso   1.000  C
  C571     1.0000 0.25000  0.89750  0.14750  Biso   1.000  C
  C572     1.0000 0.25000  0.64750  0.39750  Biso   1.000  C
  C573     1.0000 0.00000  0.89750  0.10250  Biso   1.000  C
  C574     1.0000 0.00000  0.64750  0.35250  Biso   1.000  C
  C575     1.0000 0.25000  0.89750  0.35250  Biso   1.000  C
  C576     1.0000 0.25000  0.64750  0.10250  Biso   1.000  C
  Zr73     1.0000 0.05994  0.50000  0.50000  Biso   1.000  Zr
  Zr74     1.0000 0.05994  0.75000  0.75000  Biso   1.000  Zr
  Zr75     1.0000 0.30995  0.50000  0.75000  Biso   1.000  Zr
  Zr76     1.0000 0.30995  0.75000  0.50000  Biso   1.000  Zr
  Zr77     1.0000 0.44005  0.50000  0.50000  Biso   1.000  Zr
  Zr78     1.0000 0.44005  0.75000  0.75000  Biso   1.000  Zr
  Zr79     1.0000 0.19006  0.50000  0.75000  Biso   1.000  Zr
  Zr80     1.0000 0.19006  0.75000  0.50000  Biso   1.000  Zr
  Zr81     1.0000 0.00000  0.55994  0.50000  Biso   1.000  Zr
  Zr82     1.0000 0.00000  0.80994  0.75000  Biso   1.000  Zr
  Zr83     1.0000 0.25000  0.55994  0.75000  Biso   1.000  Zr
  Zr84     1.0000 0.25000  0.80994  0.50000  Biso   1.000  Zr
  Zr85     1.0000 0.00000  0.94005  0.50000  Biso   1.000  Zr
  Zr86     1.0000 0.00000  0.69005  0.75000  Biso   1.000  Zr
  Zr87     1.0000 0.25000  0.94005  0.75000  Biso   1.000  Zr
  Zr88     1.0000 0.25000  0.69005  0.50000  Biso   1.000  Zr
  Zr89     1.0000 0.00000  0.50000  0.55994  Biso   1.000  Zr
  Zr90     1.0000 0.00000  0.75000  0.80994  Biso   1.000  Zr
  Zr91     1.0000 0.25000  0.50000  0.80994  Biso   1.000  Zr
  Zr92     1.0000 0.25000  0.75000  0.55994  Biso   1.000  Zr
  Zr93     1.0000 0.00000  0.50000  0.94005  Biso   1.000  Zr
  Zr94     1.0000 0.00000  0.75000  0.69005  Biso   1.000  Zr
  Zr95     1.0000 0.25000  0.50000  0.69005  Biso   1.000  Zr
  Zr96     1.0000 0.25000  0.75000  0.94005  Biso   1.000  Zr
  O361     1.0000 0.08524  0.50000  0.54765  Biso   1.000  O
  C577     1.0000 0.13375  0.50000  0.59220  Biso   1.000  C
  H289     1.0000 0.13936  0.50000  0.56524  Biso   1.000  H
  O362     1.0000 0.08524  0.75000  0.79765  Biso   1.000  O
  C578     1.0000 0.13375  0.75000  0.84220  Biso   1.000  C
  H290     1.0000 0.13936  0.75000  0.81524  Biso   1.000  H
  O363     1.0000 0.33524  0.50000  0.79765  Biso   1.000  O
  C579     1.0000 0.38375  0.50000  0.84220  Biso   1.000  C
  H291     1.0000 0.38936  0.50000  0.81524  Biso   1.000  H
  O364     1.0000 0.33524  0.75000  0.54765  Biso   1.000  O
  C580     1.0000 0.38375  0.75000  0.59220  Biso   1.000  C
  H292     1.0000 0.38936  0.75000  0.56524  Biso   1.000  H
  O365     1.0000 0.41476  0.50000  0.54765  Biso   1.000  O
  C581     1.0000 0.36625  0.50000  0.59220  Biso   1.000  C
  H293     1.0000 0.36064  0.50000  0.56524  Biso   1.000  H
  O366     1.0000 0.41476  0.75000  0.79765  Biso   1.000  O
  C582     1.0000 0.36625  0.75000  0.84220  Biso   1.000  C
  H294     1.0000 0.36064  0.75000  0.81524  Biso   1.000  H
  O367     1.0000 0.16476  0.50000  0.79765  Biso   1.000  O
  C583     1.0000 0.11625  0.50000  0.84220  Biso   1.000  C
  H295     1.0000 0.11064  0.50000  0.81524  Biso   1.000  H
  O368     1.0000 0.16476  0.75000  0.54765  Biso   1.000  O
  C584     1.0000 0.11625  0.75000  0.59220  Biso   1.000  C
  H296     1.0000 0.11064  0.75000  0.56524  Biso   1.000  H
  O369     1.0000 0.41476  0.50000  0.95235  Biso   1.000  O
  C585     1.0000 0.36625  0.50000  0.90780  Biso   1.000  C
  H297     1.0000 0.36064  0.50000  0.93476  Biso   1.000  H
  O370     1.0000 0.41476  0.75000  0.70235  Biso   1.000  O
  C586     1.0000 0.36625  0.75000  0.65780  Biso   1.000  C
  H298     1.0000 0.36064  0.75000  0.68476  Biso   1.000  H
  O371     1.0000 0.16476  0.50000  0.70235  Biso   1.000  O
  C587     1.0000 0.11625  0.50000  0.65780  Biso   1.000  C
  H299     1.0000 0.11064  0.50000  0.68476  Biso   1.000  H
  O372     1.0000 0.16476  0.75000  0.95235  Biso   1.000  O
  C588     1.0000 0.11625  0.75000  0.90780  Biso   1.000  C
  H300     1.0000 0.11064  0.75000  0.93476  Biso   1.000  H
  O373     1.0000 0.08524  0.50000  0.95235  Biso   1.000  O
  C589     1.0000 0.13375  0.50000  0.90780  Biso   1.000  C
  H301     1.0000 0.13936  0.50000  0.93476  Biso   1.000  H
  O374     1.0000 0.08524  0.75000  0.70235  Biso   1.000  O
  C590     1.0000 0.13375  0.75000  0.65780  Biso   1.000  C
  H302     1.0000 0.13936  0.75000  0.68476  Biso   1.000  H
  O375     1.0000 0.33524  0.50000  0.70235  Biso   1.000  O
  C591     1.0000 0.38375  0.50000  0.65780  Biso   1.000  C
  H303     1.0000 0.38936  0.50000  0.68476  Biso   1.000  H
  O376     1.0000 0.33524  0.75000  0.95235  Biso   1.000  O
  C592     1.0000 0.38375  0.75000  0.90780  Biso   1.000  C
  H304     1.0000 0.38936  0.75000  0.93476  Biso   1.000  H
  O377     1.0000 0.04765  0.58523  0.50000  Biso   1.000  O
  C593     1.0000 0.09220  0.63375  0.50000  Biso   1.000  C
  H305     1.0000 0.06524  0.63936  0.50000  Biso   1.000  H
  O378     1.0000 0.04765  0.83524  0.75000  Biso   1.000  O
  C594     1.0000 0.09220  0.88375  0.75000  Biso   1.000  C
  H306     1.0000 0.06524  0.88936  0.75000  Biso   1.000  H
  O379     1.0000 0.29765  0.58523  0.75000  Biso   1.000  O
  C595     1.0000 0.34220  0.63375  0.75000  Biso   1.000  C
  H307     1.0000 0.31524  0.63936  0.75000  Biso   1.000  H
  O380     1.0000 0.29765  0.83524  0.50000  Biso   1.000  O
  C596     1.0000 0.34220  0.88375  0.50000  Biso   1.000  C
  H308     1.0000 0.31524  0.88936  0.50000  Biso   1.000  H
  O381     1.0000 0.04765  0.91477  0.50000  Biso   1.000  O
  C597     1.0000 0.09220  0.86625  0.50000  Biso   1.000  C
  H309     1.0000 0.06524  0.86064  0.50000  Biso   1.000  H
  O382     1.0000 0.04765  0.66476  0.75000  Biso   1.000  O
  C598     1.0000 0.09220  0.61625  0.75000  Biso   1.000  C
  H310     1.0000 0.06524  0.61064  0.75000  Biso   1.000  H
  O383     1.0000 0.29765  0.91477  0.75000  Biso   1.000  O
  C599     1.0000 0.34220  0.86625  0.75000  Biso   1.000  C
  H311     1.0000 0.31524  0.86064  0.75000  Biso   1.000  H
  O384     1.0000 0.29765  0.66476  0.50000  Biso   1.000  O
  C600     1.0000 0.34220  0.61625  0.50000  Biso   1.000  C
  H312     1.0000 0.31524  0.61064  0.50000  Biso   1.000  H
  O385     1.0000 0.45235  0.91477  0.50000  Biso   1.000  O
  C601     1.0000 0.40780  0.86625  0.50000  Biso   1.000  C
  H313     1.0000 0.43476  0.86064  0.50000  Biso   1.000  H
  O386     1.0000 0.45235  0.66476  0.75000  Biso   1.000  O
  C602     1.0000 0.40780  0.61625  0.75000  Biso   1.000  C
  H314     1.0000 0.43476  0.61064  0.75000  Biso   1.000  H
  O387     1.0000 0.20235  0.91477  0.75000  Biso   1.000  O
  C603     1.0000 0.15780  0.86625  0.75000  Biso   1.000  C
  H315     1.0000 0.18476  0.86064  0.75000  Biso   1.000  H
  O388     1.0000 0.20235  0.66476  0.50000  Biso   1.000  O
  C604     1.0000 0.15780  0.61625  0.50000  Biso   1.000  C
  H316     1.0000 0.18476  0.61064  0.50000  Biso   1.000  H
  O389     1.0000 0.45235  0.58523  0.50000  Biso   1.000  O
  C605     1.0000 0.40780  0.63375  0.50000  Biso   1.000  C
  H317     1.0000 0.43476  0.63936  0.50000  Biso   1.000  H
  O390     1.0000 0.45235  0.83524  0.75000  Biso   1.000  O
  C606     1.0000 0.40780  0.88375  0.75000  Biso   1.000  C
  H318     1.0000 0.43476  0.88936  0.75000  Biso   1.000  H
  O391     1.0000 0.20235  0.58523  0.75000  Biso   1.000  O
  C607     1.0000 0.15780  0.63375  0.75000  Biso   1.000  C
  H319     1.0000 0.18476  0.63936  0.75000  Biso   1.000  H
  O392     1.0000 0.20235  0.83524  0.50000  Biso   1.000  O
  C608     1.0000 0.15780  0.88375  0.50000  Biso   1.000  C
  H320     1.0000 0.18476  0.88936  0.50000  Biso   1.000  H
  O393     1.0000 0.00000  0.54765  0.58523  Biso   1.000  O
  C609     1.0000 0.00000  0.59220  0.63375  Biso   1.000  C
  H321     1.0000 0.00000  0.56524  0.63936  Biso   1.000  H
  O394     1.0000 0.00000  0.79765  0.83524  Biso   1.000  O
  C610     1.0000 0.00000  0.84220  0.88375  Biso   1.000  C
  H322     1.0000 0.00000  0.81524  0.88936  Biso   1.000  H
  O395     1.0000 0.25000  0.54765  0.83524  Biso   1.000  O
  C611     1.0000 0.25000  0.59220  0.88375  Biso   1.000  C
  H323     1.0000 0.25000  0.56524  0.88936  Biso   1.000  H
  O396     1.0000 0.25000  0.79765  0.58523  Biso   1.000  O
  C612     1.0000 0.25000  0.84220  0.63375  Biso   1.000  C
  H324     1.0000 0.25000  0.81524  0.63936  Biso   1.000  H
  O397     1.0000 0.00000  0.54765  0.91477  Biso   1.000  O
  C613     1.0000 0.00000  0.59220  0.86625  Biso   1.000  C
  H325     1.0000 0.00000  0.56524  0.86064  Biso   1.000  H
  O398     1.0000 0.00000  0.79765  0.66476  Biso   1.000  O
  C614     1.0000 0.00000  0.84220  0.61625  Biso   1.000  C
  H326     1.0000 0.00000  0.81524  0.61064  Biso   1.000  H
  O399     1.0000 0.25000  0.54765  0.66476  Biso   1.000  O
  C615     1.0000 0.25000  0.59220  0.61625  Biso   1.000  C
  H327     1.0000 0.25000  0.56524  0.61064  Biso   1.000  H
  O400     1.0000 0.25000  0.79765  0.91477  Biso   1.000  O
  C616     1.0000 0.25000  0.84220  0.86625  Biso   1.000  C
  H328     1.0000 0.25000  0.81524  0.86064  Biso   1.000  H
  O401     1.0000 0.00000  0.95235  0.91477  Biso   1.000  O
  C617     1.0000 0.00000  0.90780  0.86625  Biso   1.000  C
  H329     1.0000 0.00000  0.93476  0.86064  Biso   1.000  H
  O402     1.0000 0.00000  0.70235  0.66476  Biso   1.000  O
  C618     1.0000 0.00000  0.65780  0.61625  Biso   1.000  C
  H330     1.0000 0.00000  0.68476  0.61064  Biso   1.000  H
  O403     1.0000 0.25000  0.95235  0.66476  Biso   1.000  O
  C619     1.0000 0.25000  0.90780  0.61625  Biso   1.000  C
  H331     1.0000 0.25000  0.93476  0.61064  Biso   1.000  H
  O404     1.0000 0.25000  0.70235  0.91477  Biso   1.000  O
  C620     1.0000 0.25000  0.65780  0.86625  Biso   1.000  C
  H332     1.0000 0.25000  0.68476  0.86064  Biso   1.000  H
  O405     1.0000 0.00000  0.95235  0.58523  Biso   1.000  O
  C621     1.0000 0.00000  0.90780  0.63375  Biso   1.000  C
  H333     1.0000 0.00000  0.93476  0.63936  Biso   1.000  H
  O406     1.0000 0.00000  0.70235  0.83524  Biso   1.000  O
  C622     1.0000 0.00000  0.65780  0.88375  Biso   1.000  C
  H334     1.0000 0.00000  0.68476  0.88936  Biso   1.000  H
  O407     1.0000 0.25000  0.95235  0.83524  Biso   1.000  O
  C623     1.0000 0.25000  0.90780  0.88375  Biso   1.000  C
  H335     1.0000 0.25000  0.93476  0.88936  Biso   1.000  H
  O408     1.0000 0.25000  0.70235  0.58523  Biso   1.000  O
  C624     1.0000 0.25000  0.65780  0.63375  Biso   1.000  C
  H336     1.0000 0.25000  0.68476  0.63936  Biso   1.000  H
  O409     1.0000 0.00000  0.58523  0.95235  Biso   1.000  O
  C625     1.0000 0.00000  0.63375  0.90780  Biso   1.000  C
  H337     1.0000 0.00000  0.63936  0.93476  Biso   1.000  H
  O410     1.0000 0.00000  0.83524  0.70235  Biso   1.000  O
  C626     1.0000 0.00000  0.88375  0.65780  Biso   1.000  C
  H338     1.0000 0.00000  0.88936  0.68476  Biso   1.000  H
  O411     1.0000 0.25000  0.58523  0.70235  Biso   1.000  O
  C627     1.0000 0.25000  0.63375  0.65780  Biso   1.000  C
  H339     1.0000 0.25000  0.63936  0.68476  Biso   1.000  H
  O412     1.0000 0.25000  0.83524  0.95235  Biso   1.000  O
  C628     1.0000 0.25000  0.88375  0.90780  Biso   1.000  C
  H340     1.0000 0.25000  0.88936  0.93476  Biso   1.000  H
  O413     1.0000 0.00000  0.91477  0.95235  Biso   1.000  O
  C629     1.0000 0.00000  0.86625  0.90780  Biso   1.000  C
  H341     1.0000 0.00000  0.86064  0.93476  Biso   1.000  H
  O414     1.0000 0.00000  0.66476  0.70235  Biso   1.000  O
  C630     1.0000 0.00000  0.61625  0.65780  Biso   1.000  C
  H342     1.0000 0.00000  0.61064  0.68476  Biso   1.000  H
  O415     1.0000 0.25000  0.91477  0.70235  Biso   1.000  O
  C631     1.0000 0.25000  0.86625  0.65780  Biso   1.000  C
  H343     1.0000 0.25000  0.86064  0.68476  Biso   1.000  H
  O416     1.0000 0.25000  0.66476  0.95235  Biso   1.000  O
  C632     1.0000 0.25000  0.61625  0.90780  Biso   1.000  C
  H344     1.0000 0.25000  0.61064  0.93476  Biso   1.000  H
  O417     1.0000 0.00000  0.91477  0.54765  Biso   1.000  O
  C633     1.0000 0.00000  0.86625  0.59220  Biso   1.000  C
  H345     1.0000 0.00000  0.86064  0.56524  Biso   1.000  H
  O418     1.0000 0.00000  0.66476  0.79765  Biso   1.000  O
  C634     1.0000 0.00000  0.61625  0.84220  Biso   1.000  C
  H346     1.0000 0.00000  0.61064  0.81524  Biso   1.000  H
  O419     1.0000 0.25000  0.91477  0.79765  Biso   1.000  O
  C635     1.0000 0.25000  0.86625  0.84220  Biso   1.000  C
  H347     1.0000 0.25000  0.86064  0.81524  Biso   1.000  H
  O420     1.0000 0.25000  0.66476  0.54765  Biso   1.000  O
  C636     1.0000 0.25000  0.61625  0.59220  Biso   1.000  C
  H348     1.0000 0.25000  0.61064  0.56524  Biso   1.000  H
  O421     1.0000 0.00000  0.58523  0.54765  Biso   1.000  O
  C637     1.0000 0.00000  0.63375  0.59220  Biso   1.000  C
  H349     1.0000 0.00000  0.63936  0.56524  Biso   1.000  H
  O422     1.0000 0.00000  0.83524  0.79765  Biso   1.000  O
  C638     1.0000 0.00000  0.88375  0.84220  Biso   1.000  C
  H350     1.0000 0.00000  0.88936  0.81524  Biso   1.000  H
  O423     1.0000 0.25000  0.58523  0.79765  Biso   1.000  O
  C639     1.0000 0.25000  0.63375  0.84220  Biso   1.000  C
  H351     1.0000 0.25000  0.63936  0.81524  Biso   1.000  H
  O424     1.0000 0.25000  0.83524  0.54765  Biso   1.000  O
  C640     1.0000 0.25000  0.88375  0.59220  Biso   1.000  C
  H352     1.0000 0.25000  0.88936  0.56524  Biso   1.000  H
  O425     1.0000 0.08524  0.54765  0.50000  Biso   1.000  O
  C641     1.0000 0.13375  0.59220  0.50000  Biso   1.000  C
  H353     1.0000 0.13936  0.56524  0.50000  Biso   1.000  H
  O426     1.0000 0.08524  0.79765  0.75000  Biso   1.000  O
  C642     1.0000 0.13375  0.84220  0.75000  Biso   1.000  C
  H354     1.0000 0.13936  0.81524  0.75000  Biso   1.000  H
  O427     1.0000 0.33524  0.54765  0.75000  Biso   1.000  O
  C643     1.0000 0.38375  0.59220  0.75000  Biso   1.000  C
  H355     1.0000 0.38936  0.56524  0.75000  Biso   1.000  H
  O428     1.0000 0.33524  0.79765  0.50000  Biso   1.000  O
  C644     1.0000 0.38375  0.84220  0.50000  Biso   1.000  C
  H356     1.0000 0.38936  0.81524  0.50000  Biso   1.000  H
  O429     1.0000 0.41476  0.54765  0.50000  Biso   1.000  O
  C645     1.0000 0.36625  0.59220  0.50000  Biso   1.000  C
  H357     1.0000 0.36064  0.56524  0.50000  Biso   1.000  H
  O430     1.0000 0.41476  0.79765  0.75000  Biso   1.000  O
  C646     1.0000 0.36625  0.84220  0.75000  Biso   1.000  C
  H358     1.0000 0.36064  0.81524  0.75000  Biso   1.000  H
  O431     1.0000 0.16476  0.54765  0.75000  Biso   1.000  O
  C647     1.0000 0.11625  0.59220  0.75000  Biso   1.000  C
  H359     1.0000 0.11064  0.56524  0.75000  Biso   1.000  H
  O432     1.0000 0.16476  0.79765  0.50000  Biso   1.000  O
  C648     1.0000 0.11625  0.84220  0.50000  Biso   1.000  C
  H360     1.0000 0.11064  0.81524  0.50000  Biso   1.000  H
  O433     1.0000 0.41476  0.95235  0.50000  Biso   1.000  O
  C649     1.0000 0.36625  0.90780  0.50000  Biso   1.000  C
  H361     1.0000 0.36064  0.93476  0.50000  Biso   1.000  H
  O434     1.0000 0.41476  0.70235  0.75000  Biso   1.000  O
  C650     1.0000 0.36625  0.65780  0.75000  Biso   1.000  C
  H362     1.0000 0.36064  0.68476  0.75000  Biso   1.000  H
  O435     1.0000 0.16476  0.95235  0.75000  Biso   1.000  O
  C651     1.0000 0.11625  0.90780  0.75000  Biso   1.000  C
  H363     1.0000 0.11064  0.93476  0.75000  Biso   1.000  H
  O436     1.0000 0.16476  0.70235  0.50000  Biso   1.000  O
  C652     1.0000 0.11625  0.65780  0.50000  Biso   1.000  C
  H364     1.0000 0.11064  0.68476  0.50000  Biso   1.000  H
  O437     1.0000 0.08524  0.95235  0.50000  Biso   1.000  O
  C653     1.0000 0.13375  0.90780  0.50000  Biso   1.000  C
  H365     1.0000 0.13936  0.93476  0.50000  Biso   1.000  H
  O438     1.0000 0.08524  0.70235  0.75000  Biso   1.000  O
  C654     1.0000 0.13375  0.65780  0.75000  Biso   1.000  C
  H366     1.0000 0.13936  0.68476  0.75000  Biso   1.000  H
  O439     1.0000 0.33524  0.95235  0.75000  Biso   1.000  O
  C655     1.0000 0.38375  0.90780  0.75000  Biso   1.000  C
  H367     1.0000 0.38936  0.93476  0.75000  Biso   1.000  H
  O440     1.0000 0.33524  0.70235  0.50000  Biso   1.000  O
  C656     1.0000 0.38375  0.65780  0.50000  Biso   1.000  C
  H368     1.0000 0.38936  0.68476  0.50000  Biso   1.000  H
  O441     1.0000 0.04765  0.50000  0.91477  Biso   1.000  O
  C657     1.0000 0.09220  0.50000  0.86625  Biso   1.000  C
  H369     1.0000 0.06524  0.50000  0.86064  Biso   1.000  H
  O442     1.0000 0.04765  0.75000  0.66476  Biso   1.000  O
  C658     1.0000 0.09220  0.75000  0.61625  Biso   1.000  C
  H370     1.0000 0.06524  0.75000  0.61064  Biso   1.000  H
  O443     1.0000 0.29765  0.50000  0.66476  Biso   1.000  O
  C659     1.0000 0.34220  0.50000  0.61625  Biso   1.000  C
  H371     1.0000 0.31524  0.50000  0.61064  Biso   1.000  H
  O444     1.0000 0.29765  0.75000  0.91477  Biso   1.000  O
  C660     1.0000 0.34220  0.75000  0.86625  Biso   1.000  C
  H372     1.0000 0.31524  0.75000  0.86064  Biso   1.000  H
  O445     1.0000 0.04765  0.50000  0.58523  Biso   1.000  O
  C661     1.0000 0.09220  0.50000  0.63375  Biso   1.000  C
  H373     1.0000 0.06524  0.50000  0.63936  Biso   1.000  H
  O446     1.0000 0.04765  0.75000  0.83524  Biso   1.000  O
  C662     1.0000 0.09220  0.75000  0.88375  Biso   1.000  C
  H374     1.0000 0.06524  0.75000  0.88936  Biso   1.000  H
  O447     1.0000 0.29765  0.50000  0.83524  Biso   1.000  O
  C663     1.0000 0.34220  0.50000  0.88375  Biso   1.000  C
  H375     1.0000 0.31524  0.50000  0.88936  Biso   1.000  H
  O448     1.0000 0.29765  0.75000  0.58523  Biso   1.000  O
  C664     1.0000 0.34220  0.75000  0.63375  Biso   1.000  C
  H376     1.0000 0.31524  0.75000  0.63936  Biso   1.000  H
  O449     1.0000 0.45235  0.50000  0.58523  Biso   1.000  O
  C665     1.0000 0.40780  0.50000  0.63375  Biso   1.000  C
  H377     1.0000 0.43476  0.50000  0.63936  Biso   1.000  H
  O450     1.0000 0.45235  0.75000  0.83524  Biso   1.000  O
  C666     1.0000 0.40780  0.75000  0.88375  Biso   1.000  C
  H378     1.0000 0.43476  0.75000  0.88936  Biso   1.000  H
  O451     1.0000 0.20235  0.50000  0.83524  Biso   1.000  O
  C667     1.0000 0.15780  0.50000  0.88375  Biso   1.000  C
  H379     1.0000 0.18476  0.50000  0.88936  Biso   1.000  H
  O452     1.0000 0.20235  0.75000  0.58523  Biso   1.000  O
  C668     1.0000 0.15780  0.75000  0.63375  Biso   1.000  C
  H380     1.0000 0.18476  0.75000  0.63936  Biso   1.000  H
  O453     1.0000 0.45235  0.50000  0.91477  Biso   1.000  O
  C669     1.0000 0.40780  0.50000  0.86625  Biso   1.000  C
  H381     1.0000 0.43476  0.50000  0.86064  Biso   1.000  H
  O454     1.0000 0.45235  0.75000  0.66476  Biso   1.000  O
  C670     1.0000 0.40780  0.75000  0.61625  Biso   1.000  C
  H382     1.0000 0.43476  0.75000  0.61064  Biso   1.000  H
  O455     1.0000 0.20235  0.50000  0.66476  Biso   1.000  O
  C671     1.0000 0.15780  0.50000  0.61625  Biso   1.000  C
  H383     1.0000 0.18476  0.50000  0.61064  Biso   1.000  H
  O456     1.0000 0.20235  0.75000  0.91477  Biso   1.000  O
  C672     1.0000 0.15780  0.75000  0.86625  Biso   1.000  C
  H384     1.0000 0.18476  0.75000  0.86064  Biso   1.000  H
  O457     1.0000 0.02805  0.72195  0.72195  Biso   1.000  O
  O458     1.0000 0.27805  0.97195  0.72195  Biso   1.000  O
  O459     1.0000 0.27805  0.72195  0.97195  Biso   1.000  O
  O460     1.0000 0.22195  0.52805  0.72195  Biso   1.000  O
  O461     1.0000 0.22195  0.77805  0.97195  Biso   1.000  O
  O462     1.0000 0.47195  0.97195  0.52805  Biso   1.000  O
  O463     1.0000 0.47195  0.72195  0.77805  Biso   1.000  O
  O464     1.0000 0.02805  0.52805  0.52805  Biso   1.000  O
  O465     1.0000 0.27805  0.77805  0.52805  Biso   1.000  O
  O466     1.0000 0.47195  0.52805  0.52805  Biso   1.000  O
  O467     1.0000 0.47195  0.77805  0.77805  Biso   1.000  O
  O468     1.0000 0.22195  0.52805  0.77805  Biso   1.000  O
  O469     1.0000 0.22195  0.77805  0.52805  Biso   1.000  O
  O470     1.0000 0.02805  0.97195  0.52805  Biso   1.000  O
  O471     1.0000 0.02805  0.72195  0.77805  Biso   1.000  O
  O472     1.0000 0.27805  0.97195  0.77805  Biso   1.000  O
  O473     1.0000 0.27805  0.72195  0.52805  Biso   1.000  O
  O474     1.0000 0.47195  0.97195  0.97195  Biso   1.000  O
  O475     1.0000 0.47195  0.72195  0.72195  Biso   1.000  O
  O476     1.0000 0.22195  0.97195  0.72195  Biso   1.000  O
  O477     1.0000 0.22195  0.72195  0.97195  Biso   1.000  O
  O478     1.0000 0.02805  0.52805  0.97195  Biso   1.000  O
  O479     1.0000 0.02805  0.77805  0.72195  Biso   1.000  O
  O480     1.0000 0.27805  0.52805  0.72195  Biso   1.000  O
  C673     1.0000 0.07680  0.50000  0.92320  Biso   1.000  C
  C674     1.0000 0.07680  0.75000  0.67320  Biso   1.000  C
  C675     1.0000 0.32680  0.50000  0.67320  Biso   1.000  C
  C676     1.0000 0.32680  0.75000  0.92320  Biso   1.000  C
  C677     1.0000 0.42320  0.50000  0.92320  Biso   1.000  C
  C678     1.0000 0.42320  0.75000  0.67320  Biso   1.000  C
  C679     1.0000 0.17320  0.50000  0.67320  Biso   1.000  C
  C680     1.0000 0.17320  0.75000  0.92320  Biso   1.000  C
  C681     1.0000 0.42320  0.50000  0.57680  Biso   1.000  C
  C682     1.0000 0.42320  0.75000  0.82680  Biso   1.000  C
  C683     1.0000 0.17320  0.50000  0.82680  Biso   1.000  C
  C684     1.0000 0.17320  0.75000  0.57680  Biso   1.000  C
  C685     1.0000 0.07680  0.50000  0.57680  Biso   1.000  C
  C686     1.0000 0.07680  0.75000  0.82680  Biso   1.000  C
  C687     1.0000 0.32680  0.50000  0.82680  Biso   1.000  C
  C688     1.0000 0.32680  0.75000  0.57680  Biso   1.000  C
  C689     1.0000 0.42320  0.57680  0.50000  Biso   1.000  C
  C690     1.0000 0.42320  0.82680  0.75000  Biso   1.000  C
  C691     1.0000 0.17320  0.57680  0.75000  Biso   1.000  C
  C692     1.0000 0.17320  0.82680  0.50000  Biso   1.000  C
  C693     1.0000 0.42320  0.92320  0.50000  Biso   1.000  C
  C694     1.0000 0.42320  0.67320  0.75000  Biso   1.000  C
  C695     1.0000 0.17320  0.92320  0.75000  Biso   1.000  C
  C696     1.0000 0.17320  0.67320  0.50000  Biso   1.000  C
  C697     1.0000 0.07680  0.92320  0.50000  Biso   1.000  C
  C698     1.0000 0.07680  0.67320  0.75000  Biso   1.000  C
  C699     1.0000 0.32680  0.92320  0.75000  Biso   1.000  C
  C700     1.0000 0.32680  0.67320  0.50000  Biso   1.000  C
  C701     1.0000 0.07680  0.57680  0.50000  Biso   1.000  C
  C702     1.0000 0.07680  0.82680  0.75000  Biso   1.000  C
  C703     1.0000 0.32680  0.57680  0.75000  Biso   1.000  C
  C704     1.0000 0.32680  0.82680  0.50000  Biso   1.000  C
  C705     1.0000 0.00000  0.92320  0.57680  Biso   1.000  C
  C706     1.0000 0.00000  0.67320  0.82680  Biso   1.000  C
  C707     1.0000 0.25000  0.92320  0.82680  Biso   1.000  C
  C708     1.0000 0.25000  0.67320  0.57680  Biso   1.000  C
  C709     1.0000 0.00000  0.92320  0.92320  Biso   1.000  C
  C710     1.0000 0.00000  0.67320  0.67320  Biso   1.000  C
  C711     1.0000 0.25000  0.92320  0.67320  Biso   1.000  C
  C712     1.0000 0.25000  0.67320  0.92320  Biso   1.000  C
  C713     1.0000 0.00000  0.57680  0.92320  Biso   1.000  C
  C714     1.0000 0.00000  0.82680  0.67320  Biso   1.000  C
  C715     1.0000 0.25000  0.57680  0.67320  Biso   1.000  C
  C716     1.0000 0.25000  0.82680  0.92320  Biso   1.000  C
  C717     1.0000 0.00000  0.57680  0.57680  Biso   1.000  C
  C718     1.0000 0.00000  0.82680  0.82680  Biso   1.000  C
  C719     1.0000 0.25000  0.57680  0.82680  Biso   1.000  C
  C720     1.0000 0.25000  0.82680  0.57680  Biso   1.000  C
  C721     1.0000 0.10250  0.50000  0.60250  Biso   1.000  C
  C722     1.0000 0.10250  0.75000  0.85250  Biso   1.000  C
  C723     1.0000 0.35250  0.50000  0.85250  Biso   1.000  C
  C724     1.0000 0.35250  0.75000  0.60250  Biso   1.000  C
  C725     1.0000 0.39750  0.50000  0.60250  Biso   1.000  C
  C726     1.0000 0.39750  0.75000  0.85250  Biso   1.000  C
  C727     1.0000 0.14750  0.50000  0.85250  Biso   1.000  C
  C728     1.0000 0.14750  0.75000  0.60250  Biso   1.000  C
  C729     1.0000 0.39750  0.50000  0.89750  Biso   1.000  C
  C730     1.0000 0.39750  0.75000  0.64750  Biso   1.000  C
  C731     1.0000 0.14750  0.50000  0.64750  Biso   1.000  C
  C732     1.0000 0.14750  0.75000  0.89750  Biso   1.000  C
  C733     1.0000 0.10250  0.50000  0.89750  Biso   1.000  C
  C734     1.0000 0.10250  0.75000  0.64750  Biso   1.000  C
  C735     1.0000 0.35250  0.50000  0.64750  Biso   1.000  C
  C736     1.0000 0.35250  0.75000  0.89750  Biso   1.000  C
  C737     1.0000 0.10250  0.60250  0.50000  Biso   1.000  C
  C738     1.0000 0.10250  0.85250  0.75000  Biso   1.000  C
  C739     1.0000 0.35250  0.60250  0.75000  Biso   1.000  C
  C740     1.0000 0.35250  0.85250  0.50000  Biso   1.000  C
  C741     1.0000 0.10250  0.89750  0.50000  Biso   1.000  C
  C742     1.0000 0.10250  0.64750  0.75000  Biso   1.000  C
  C743     1.0000 0.35250  0.89750  0.75000  Biso   1.000  C
  C744     1.0000 0.35250  0.64750  0.50000  Biso   1.000  C
  C745     1.0000 0.39750  0.89750  0.50000  Biso   1.000  C
  C746     1.0000 0.39750  0.64750  0.75000  Biso   1.000  C
  C747     1.0000 0.14750  0.89750  0.75000  Biso   1.000  C
  C748     1.0000 0.14750  0.64750  0.50000  Biso   1.000  C
  C749     1.0000 0.39750  0.60250  0.50000  Biso   1.000  C
  C750     1.0000 0.39750  0.85250  0.75000  Biso   1.000  C
  C751     1.0000 0.14750  0.60250  0.75000  Biso   1.000  C
  C752     1.0000 0.14750  0.85250  0.50000  Biso   1.000  C
  C753     1.0000 0.00000  0.60250  0.60250  Biso   1.000  C
  C754     1.0000 0.00000  0.85250  0.85250  Biso   1.000  C
  C755     1.0000 0.25000  0.60250  0.85250  Biso   1.000  C
  C756     1.0000 0.25000  0.85250  0.60250  Biso   1.000  C
  C757     1.0000 0.00000  0.60250  0.89750  Biso   1.000  C
  C758     1.0000 0.00000  0.85250  0.64750  Biso   1.000  C
  C759     1.0000 0.25000  0.60250  0.64750  Biso   1.000  C
  C760     1.0000 0.25000  0.85250  0.89750  Biso   1.000  C
  C761     1.0000 0.00000  0.89750  0.89750  Biso   1.000  C
  C762     1.0000 0.00000  0.64750  0.64750  Biso   1.000  C
  C763     1.0000 0.25000  0.89750  0.64750  Biso   1.000  C
  C764     1.0000 0.25000  0.64750  0.89750  Biso   1.000  C
  C765     1.0000 0.00000  0.89750  0.60250  Biso   1.000  C
  C766     1.0000 0.00000  0.64750  0.85250  Biso   1.000  C
  C767     1.0000 0.25000  0.89750  0.85250  Biso   1.000  C
  C768     1.0000 0.25000  0.64750  0.60250  Biso   1.000  C
  Zr97     1.0000 0.55994  0.00000  0.00000  Biso   1.000  Zr
  Zr98     1.0000 0.55994  0.25000  0.25000  Biso   1.000  Zr
  Zr99     1.0000 0.80994  0.00000  0.25000  Biso   1.000  Zr
  Zr100    1.0000 0.80994  0.25000  0.00000  Biso   1.000  Zr
  Zr101    1.0000 0.94005  0.00000  0.00000  Biso   1.000  Zr
  Zr102    1.0000 0.94005  0.25000  0.25000  Biso   1.000  Zr
  Zr103    1.0000 0.69005  0.00000  0.25000  Biso   1.000  Zr
  Zr104    1.0000 0.69005  0.25000  0.00000  Biso   1.000  Zr
  Zr105    1.0000 0.50000  0.05994  0.00000  Biso   1.000  Zr
  Zr106    1.0000 0.50000  0.30995  0.25000  Biso   1.000  Zr
  Zr107    1.0000 0.75000  0.05994  0.25000  Biso   1.000  Zr
  Zr108    1.0000 0.75000  0.30995  0.00000  Biso   1.000  Zr
  Zr109    1.0000 0.50000  0.44005  0.00000  Biso   1.000  Zr
  Zr110    1.0000 0.50000  0.19006  0.25000  Biso   1.000  Zr
  Zr111    1.0000 0.75000  0.44005  0.25000  Biso   1.000  Zr
  Zr112    1.0000 0.75000  0.19006  0.00000  Biso   1.000  Zr
  Zr113    1.0000 0.50000  0.00000  0.05994  Biso   1.000  Zr
  Zr114    1.0000 0.50000  0.25000  0.30995  Biso   1.000  Zr
  Zr115    1.0000 0.75000  0.00000  0.30995  Biso   1.000  Zr
  Zr116    1.0000 0.75000  0.25000  0.05994  Biso   1.000  Zr
  Zr117    1.0000 0.50000  0.00000  0.44005  Biso   1.000  Zr
  Zr118    1.0000 0.50000  0.25000  0.19006  Biso   1.000  Zr
  Zr119    1.0000 0.75000  0.00000  0.19006  Biso   1.000  Zr
  Zr120    1.0000 0.75000  0.25000  0.44005  Biso   1.000  Zr
  O481     1.0000 0.58523  0.00000  0.04765  Biso   1.000  O
  C769     1.0000 0.63375  0.00000  0.09220  Biso   1.000  C
  H385     1.0000 0.63936  0.00000  0.06524  Biso   1.000  H
  O482     1.0000 0.58523  0.25000  0.29765  Biso   1.000  O
  C770     1.0000 0.63375  0.25000  0.34220  Biso   1.000  C
  H386     1.0000 0.63936  0.25000  0.31524  Biso   1.000  H
  O483     1.0000 0.83524  0.00000  0.29765  Biso   1.000  O
  C771     1.0000 0.88375  0.00000  0.34220  Biso   1.000  C
  H387     1.0000 0.88936  0.00000  0.31524  Biso   1.000  H
  O484     1.0000 0.83524  0.25000  0.04765  Biso   1.000  O
  C772     1.0000 0.88375  0.25000  0.09220  Biso   1.000  C
  H388     1.0000 0.88936  0.25000  0.06524  Biso   1.000  H
  O485     1.0000 0.91477  0.00000  0.04765  Biso   1.000  O
  C773     1.0000 0.86625  0.00000  0.09220  Biso   1.000  C
  H389     1.0000 0.86064  0.00000  0.06524  Biso   1.000  H
  O486     1.0000 0.91477  0.25000  0.29765  Biso   1.000  O
  C774     1.0000 0.86625  0.25000  0.34220  Biso   1.000  C
  H390     1.0000 0.86064  0.25000  0.31524  Biso   1.000  H
  O487     1.0000 0.66476  0.00000  0.29765  Biso   1.000  O
  C775     1.0000 0.61625  0.00000  0.34220  Biso   1.000  C
  H391     1.0000 0.61064  0.00000  0.31524  Biso   1.000  H
  O488     1.0000 0.66476  0.25000  0.04765  Biso   1.000  O
  C776     1.0000 0.61625  0.25000  0.09220  Biso   1.000  C
  H392     1.0000 0.61064  0.25000  0.06524  Biso   1.000  H
  O489     1.0000 0.91477  0.00000  0.45235  Biso   1.000  O
  C777     1.0000 0.86625  0.00000  0.40780  Biso   1.000  C
  H393     1.0000 0.86064  0.00000  0.43476  Biso   1.000  H
  O490     1.0000 0.91477  0.25000  0.20235  Biso   1.000  O
  C778     1.0000 0.86625  0.25000  0.15780  Biso   1.000  C
  H394     1.0000 0.86064  0.25000  0.18476  Biso   1.000  H
  O491     1.0000 0.66476  0.00000  0.20235  Biso   1.000  O
  C779     1.0000 0.61625  0.00000  0.15780  Biso   1.000  C
  H395     1.0000 0.61064  0.00000  0.18476  Biso   1.000  H
  O492     1.0000 0.66476  0.25000  0.45235  Biso   1.000  O
  C780     1.0000 0.61625  0.25000  0.40780  Biso   1.000  C
  H396     1.0000 0.61064  0.25000  0.43476  Biso   1.000  H
  O493     1.0000 0.58523  0.00000  0.45235  Biso   1.000  O
  C781     1.0000 0.63375  0.00000  0.40780  Biso   1.000  C
  H397     1.0000 0.63936  0.00000  0.43476  Biso   1.000  H
  O494     1.0000 0.58523  0.25000  0.20235  Biso   1.000  O
  C782     1.0000 0.63375  0.25000  0.15780  Biso   1.000  C
  H398     1.0000 0.63936  0.25000  0.18476  Biso   1.000  H
  O495     1.0000 0.83524  0.00000  0.20235  Biso   1.000  O
  C783     1.0000 0.88375  0.00000  0.15780  Biso   1.000  C
  H399     1.0000 0.88936  0.00000  0.18476  Biso   1.000  H
  O496     1.0000 0.83524  0.25000  0.45235  Biso   1.000  O
  C784     1.0000 0.88375  0.25000  0.40780  Biso   1.000  C
  H400     1.0000 0.88936  0.25000  0.43476  Biso   1.000  H
  O497     1.0000 0.54765  0.08524  0.00000  Biso   1.000  O
  C785     1.0000 0.59220  0.13375  0.00000  Biso   1.000  C
  H401     1.0000 0.56524  0.13936  0.00000  Biso   1.000  H
  O498     1.0000 0.54765  0.33524  0.25000  Biso   1.000  O
  C786     1.0000 0.59220  0.38375  0.25000  Biso   1.000  C
  H402     1.0000 0.56524  0.38936  0.25000  Biso   1.000  H
  O499     1.0000 0.79765  0.08524  0.25000  Biso   1.000  O
  C787     1.0000 0.84220  0.13375  0.25000  Biso   1.000  C
  H403     1.0000 0.81524  0.13936  0.25000  Biso   1.000  H
  O500     1.0000 0.79765  0.33524  0.00000  Biso   1.000  O
  C788     1.0000 0.84220  0.38375  0.00000  Biso   1.000  C
  H404     1.0000 0.81524  0.38936  0.00000  Biso   1.000  H
  O501     1.0000 0.54765  0.41476  0.00000  Biso   1.000  O
  C789     1.0000 0.59220  0.36625  0.00000  Biso   1.000  C
  H405     1.0000 0.56524  0.36064  0.00000  Biso   1.000  H
  O502     1.0000 0.54765  0.16476  0.25000  Biso   1.000  O
  C790     1.0000 0.59220  0.11625  0.25000  Biso   1.000  C
  H406     1.0000 0.56524  0.11064  0.25000  Biso   1.000  H
  O503     1.0000 0.79765  0.41476  0.25000  Biso   1.000  O
  C791     1.0000 0.84220  0.36625  0.25000  Biso   1.000  C
  H407     1.0000 0.81524  0.36064  0.25000  Biso   1.000  H
  O504     1.0000 0.79765  0.16476  0.00000  Biso   1.000  O
  C792     1.0000 0.84220  0.11625  0.00000  Biso   1.000  C
  H408     1.0000 0.81524  0.11064  0.00000  Biso   1.000  H
  O505     1.0000 0.95235  0.41476  0.00000  Biso   1.000  O
  C793     1.0000 0.90780  0.36625  0.00000  Biso   1.000  C
  H409     1.0000 0.93476  0.36064  0.00000  Biso   1.000  H
  O506     1.0000 0.95235  0.16476  0.25000  Biso   1.000  O
  C794     1.0000 0.90780  0.11625  0.25000  Biso   1.000  C
  H410     1.0000 0.93476  0.11064  0.25000  Biso   1.000  H
  O507     1.0000 0.70235  0.41476  0.25000  Biso   1.000  O
  C795     1.0000 0.65780  0.36625  0.25000  Biso   1.000  C
  H411     1.0000 0.68476  0.36064  0.25000  Biso   1.000  H
  O508     1.0000 0.70235  0.16476  0.00000  Biso   1.000  O
  C796     1.0000 0.65780  0.11625  0.00000  Biso   1.000  C
  H412     1.0000 0.68476  0.11064  0.00000  Biso   1.000  H
  O509     1.0000 0.95235  0.08524  0.00000  Biso   1.000  O
  C797     1.0000 0.90780  0.13375  0.00000  Biso   1.000  C
  H413     1.0000 0.93476  0.13936  0.00000  Biso   1.000  H
  O510     1.0000 0.95235  0.33524  0.25000  Biso   1.000  O
  C798     1.0000 0.90780  0.38375  0.25000  Biso   1.000  C
  H414     1.0000 0.93476  0.38936  0.25000  Biso   1.000  H
  O511     1.0000 0.70235  0.08524  0.25000  Biso   1.000  O
  C799     1.0000 0.65780  0.13375  0.25000  Biso   1.000  C
  H415     1.0000 0.68476  0.13936  0.25000  Biso   1.000  H
  O512     1.0000 0.70235  0.33524  0.00000  Biso   1.000  O
  C800     1.0000 0.65780  0.38375  0.00000  Biso   1.000  C
  H416     1.0000 0.68476  0.38936  0.00000  Biso   1.000  H
  O513     1.0000 0.50000  0.04765  0.08524  Biso   1.000  O
  C801     1.0000 0.50000  0.09220  0.13375  Biso   1.000  C
  H417     1.0000 0.50000  0.06524  0.13936  Biso   1.000  H
  O514     1.0000 0.50000  0.29765  0.33524  Biso   1.000  O
  C802     1.0000 0.50000  0.34220  0.38375  Biso   1.000  C
  H418     1.0000 0.50000  0.31524  0.38936  Biso   1.000  H
  O515     1.0000 0.75000  0.04765  0.33524  Biso   1.000  O
  C803     1.0000 0.75000  0.09220  0.38375  Biso   1.000  C
  H419     1.0000 0.75000  0.06524  0.38936  Biso   1.000  H
  O516     1.0000 0.75000  0.29765  0.08524  Biso   1.000  O
  C804     1.0000 0.75000  0.34220  0.13375  Biso   1.000  C
  H420     1.0000 0.75000  0.31524  0.13936  Biso   1.000  H
  O517     1.0000 0.50000  0.04765  0.41476  Biso   1.000  O
  C805     1.0000 0.50000  0.09220  0.36625  Biso   1.000  C
  H421     1.0000 0.50000  0.06524  0.36064  Biso   1.000  H
  O518     1.0000 0.50000  0.29765  0.16476  Biso   1.000  O
  C806     1.0000 0.50000  0.34220  0.11625  Biso   1.000  C
  H422     1.0000 0.50000  0.31524  0.11064  Biso   1.000  H
  O519     1.0000 0.75000  0.04765  0.16476  Biso   1.000  O
  C807     1.0000 0.75000  0.09220  0.11625  Biso   1.000  C
  H423     1.0000 0.75000  0.06524  0.11064  Biso   1.000  H
  O520     1.0000 0.75000  0.29765  0.41476  Biso   1.000  O
  C808     1.0000 0.75000  0.34220  0.36625  Biso   1.000  C
  H424     1.0000 0.75000  0.31524  0.36064  Biso   1.000  H
  O521     1.0000 0.50000  0.45235  0.41476  Biso   1.000  O
  C809     1.0000 0.50000  0.40780  0.36625  Biso   1.000  C
  H425     1.0000 0.50000  0.43476  0.36064  Biso   1.000  H
  O522     1.0000 0.50000  0.20235  0.16476  Biso   1.000  O
  C810     1.0000 0.50000  0.15780  0.11625  Biso   1.000  C
  H426     1.0000 0.50000  0.18476  0.11064  Biso   1.000  H
  O523     1.0000 0.75000  0.45235  0.16476  Biso   1.000  O
  C811     1.0000 0.75000  0.40780  0.11625  Biso   1.000  C
  H427     1.0000 0.75000  0.43476  0.11064  Biso   1.000  H
  O524     1.0000 0.75000  0.20235  0.41476  Biso   1.000  O
  C812     1.0000 0.75000  0.15780  0.36625  Biso   1.000  C
  H428     1.0000 0.75000  0.18476  0.36064  Biso   1.000  H
  O525     1.0000 0.50000  0.45235  0.08524  Biso   1.000  O
  C813     1.0000 0.50000  0.40780  0.13375  Biso   1.000  C
  H429     1.0000 0.50000  0.43476  0.13936  Biso   1.000  H
  O526     1.0000 0.50000  0.20235  0.33524  Biso   1.000  O
  C814     1.0000 0.50000  0.15780  0.38375  Biso   1.000  C
  H430     1.0000 0.50000  0.18476  0.38936  Biso   1.000  H
  O527     1.0000 0.75000  0.45235  0.33524  Biso   1.000  O
  C815     1.0000 0.75000  0.40780  0.38375  Biso   1.000  C
  H431     1.0000 0.75000  0.43476  0.38936  Biso   1.000  H
  O528     1.0000 0.75000  0.20235  0.08524  Biso   1.000  O
  C816     1.0000 0.75000  0.15780  0.13375  Biso   1.000  C
  H432     1.0000 0.75000  0.18476  0.13936  Biso   1.000  H
  O529     1.0000 0.50000  0.08524  0.45235  Biso   1.000  O
  C817     1.0000 0.50000  0.13375  0.40780  Biso   1.000  C
  H433     1.0000 0.50000  0.13936  0.43476  Biso   1.000  H
  O530     1.0000 0.50000  0.33524  0.20235  Biso   1.000  O
  C818     1.0000 0.50000  0.38375  0.15780  Biso   1.000  C
  H434     1.0000 0.50000  0.38936  0.18476  Biso   1.000  H
  O531     1.0000 0.75000  0.08524  0.20235  Biso   1.000  O
  C819     1.0000 0.75000  0.13375  0.15780  Biso   1.000  C
  H435     1.0000 0.75000  0.13936  0.18476  Biso   1.000  H
  O532     1.0000 0.75000  0.33524  0.45235  Biso   1.000  O
  C820     1.0000 0.75000  0.38375  0.40780  Biso   1.000  C
  H436     1.0000 0.75000  0.38936  0.43476  Biso   1.000  H
  O533     1.0000 0.50000  0.41476  0.45235  Biso   1.000  O
  C821     1.0000 0.50000  0.36625  0.40780  Biso   1.000  C
  H437     1.0000 0.50000  0.36064  0.43476  Biso   1.000  H
  O534     1.0000 0.50000  0.16476  0.20235  Biso   1.000  O
  C822     1.0000 0.50000  0.11625  0.15780  Biso   1.000  C
  H438     1.0000 0.50000  0.11064  0.18476  Biso   1.000  H
  O535     1.0000 0.75000  0.41476  0.20235  Biso   1.000  O
  C823     1.0000 0.75000  0.36625  0.15780  Biso   1.000  C
  H439     1.0000 0.75000  0.36064  0.18476  Biso   1.000  H
  O536     1.0000 0.75000  0.16476  0.45235  Biso   1.000  O
  C824     1.0000 0.75000  0.11625  0.40780  Biso   1.000  C
  H440     1.0000 0.75000  0.11064  0.43476  Biso   1.000  H
  O537     1.0000 0.50000  0.41476  0.04765  Biso   1.000  O
  C825     1.0000 0.50000  0.36625  0.09220  Biso   1.000  C
  H441     1.0000 0.50000  0.36064  0.06524  Biso   1.000  H
  O538     1.0000 0.50000  0.16476  0.29765  Biso   1.000  O
  C826     1.0000 0.50000  0.11625  0.34220  Biso   1.000  C
  H442     1.0000 0.50000  0.11064  0.31524  Biso   1.000  H
  O539     1.0000 0.75000  0.41476  0.29765  Biso   1.000  O
  C827     1.0000 0.75000  0.36625  0.34220  Biso   1.000  C
  H443     1.0000 0.75000  0.36064  0.31524  Biso   1.000  H
  O540     1.0000 0.75000  0.16476  0.04765  Biso   1.000  O
  C828     1.0000 0.75000  0.11625  0.09220  Biso   1.000  C
  H444     1.0000 0.75000  0.11064  0.06524  Biso   1.000  H
  O541     1.0000 0.50000  0.08524  0.04765  Biso   1.000  O
  C829     1.0000 0.50000  0.13375  0.09220  Biso   1.000  C
  H445     1.0000 0.50000  0.13936  0.06524  Biso   1.000  H
  O542     1.0000 0.50000  0.33524  0.29765  Biso   1.000  O
  C830     1.0000 0.50000  0.38375  0.34220  Biso   1.000  C
  H446     1.0000 0.50000  0.38936  0.31524  Biso   1.000  H
  O543     1.0000 0.75000  0.08524  0.29765  Biso   1.000  O
  C831     1.0000 0.75000  0.13375  0.34220  Biso   1.000  C
  H447     1.0000 0.75000  0.13936  0.31524  Biso   1.000  H
  O544     1.0000 0.75000  0.33524  0.04765  Biso   1.000  O
  C832     1.0000 0.75000  0.38375  0.09220  Biso   1.000  C
  H448     1.0000 0.75000  0.38936  0.06524  Biso   1.000  H
  O545     1.0000 0.58523  0.04765  0.00000  Biso   1.000  O
  C833     1.0000 0.63375  0.09220  0.00000  Biso   1.000  C
  H449     1.0000 0.63936  0.06524  0.00000  Biso   1.000  H
  O546     1.0000 0.58523  0.29765  0.25000  Biso   1.000  O
  C834     1.0000 0.63375  0.34220  0.25000  Biso   1.000  C
  H450     1.0000 0.63936  0.31524  0.25000  Biso   1.000  H
  O547     1.0000 0.83524  0.04765  0.25000  Biso   1.000  O
  C835     1.0000 0.88375  0.09220  0.25000  Biso   1.000  C
  H451     1.0000 0.88936  0.06524  0.25000  Biso   1.000  H
  O548     1.0000 0.83524  0.29765  0.00000  Biso   1.000  O
  C836     1.0000 0.88375  0.34220  0.00000  Biso   1.000  C
  H452     1.0000 0.88936  0.31524  0.00000  Biso   1.000  H
  O549     1.0000 0.91477  0.04765  0.00000  Biso   1.000  O
  C837     1.0000 0.86625  0.09220  0.00000  Biso   1.000  C
  H453     1.0000 0.86064  0.06524  0.00000  Biso   1.000  H
  O550     1.0000 0.91477  0.29765  0.25000  Biso   1.000  O
  C838     1.0000 0.86625  0.34220  0.25000  Biso   1.000  C
  H454     1.0000 0.86064  0.31524  0.25000  Biso   1.000  H
  O551     1.0000 0.66476  0.04765  0.25000  Biso   1.000  O
  C839     1.0000 0.61625  0.09220  0.25000  Biso   1.000  C
  H455     1.0000 0.61064  0.06524  0.25000  Biso   1.000  H
  O552     1.0000 0.66476  0.29765  0.00000  Biso   1.000  O
  C840     1.0000 0.61625  0.34220  0.00000  Biso   1.000  C
  H456     1.0000 0.61064  0.31524  0.00000  Biso   1.000  H
  O553     1.0000 0.91477  0.45235  0.00000  Biso   1.000  O
  C841     1.0000 0.86625  0.40780  0.00000  Biso   1.000  C
  H457     1.0000 0.86064  0.43476  0.00000  Biso   1.000  H
  O554     1.0000 0.91477  0.20235  0.25000  Biso   1.000  O
  C842     1.0000 0.86625  0.15780  0.25000  Biso   1.000  C
  H458     1.0000 0.86064  0.18476  0.25000  Biso   1.000  H
  O555     1.0000 0.66476  0.45235  0.25000  Biso   1.000  O
  C843     1.0000 0.61625  0.40780  0.25000  Biso   1.000  C
  H459     1.0000 0.61064  0.43476  0.25000  Biso   1.000  H
  O556     1.0000 0.66476  0.20235  0.00000  Biso   1.000  O
  C844     1.0000 0.61625  0.15780  0.00000  Biso   1.000  C
  H460     1.0000 0.61064  0.18476  0.00000  Biso   1.000  H
  O557     1.0000 0.58523  0.45235  0.00000  Biso   1.000  O
  C845     1.0000 0.63375  0.40780  0.00000  Biso   1.000  C
  H461     1.0000 0.63936  0.43476  0.00000  Biso   1.000  H
  O558     1.0000 0.58523  0.20235  0.25000  Biso   1.000  O
  C846     1.0000 0.63375  0.15780  0.25000  Biso   1.000  C
  H462     1.0000 0.63936  0.18476  0.25000  Biso   1.000  H
  O559     1.0000 0.83524  0.45235  0.25000  Biso   1.000  O
  C847     1.0000 0.88375  0.40780  0.25000  Biso   1.000  C
  H463     1.0000 0.88936  0.43476  0.25000  Biso   1.000  H
  O560     1.0000 0.83524  0.20235  0.00000  Biso   1.000  O
  C848     1.0000 0.88375  0.15780  0.00000  Biso   1.000  C
  H464     1.0000 0.88936  0.18476  0.00000  Biso   1.000  H
  O561     1.0000 0.54765  0.00000  0.41476  Biso   1.000  O
  C849     1.0000 0.59220  0.00000  0.36625  Biso   1.000  C
  H465     1.0000 0.56524  0.00000  0.36064  Biso   1.000  H
  O562     1.0000 0.54765  0.25000  0.16476  Biso   1.000  O
  C850     1.0000 0.59220  0.25000  0.11625  Biso   1.000  C
  H466     1.0000 0.56524  0.25000  0.11064  Biso   1.000  H
  O563     1.0000 0.79765  0.00000  0.16476  Biso   1.000  O
  C851     1.0000 0.84220  0.00000  0.11625  Biso   1.000  C
  H467     1.0000 0.81524  0.00000  0.11064  Biso   1.000  H
  O564     1.0000 0.79765  0.25000  0.41476  Biso   1.000  O
  C852     1.0000 0.84220  0.25000  0.36625  Biso   1.000  C
  H468     1.0000 0.81524  0.25000  0.36064  Biso   1.000  H
  O565     1.0000 0.54765  0.00000  0.08524  Biso   1.000  O
  C853     1.0000 0.59220  0.00000  0.13375  Biso   1.000  C
  H469     1.0000 0.56524  0.00000  0.13936  Biso   1.000  H
  O566     1.0000 0.54765  0.25000  0.33524  Biso   1.000  O
  C854     1.0000 0.59220  0.25000  0.38375  Biso   1.000  C
  H470     1.0000 0.56524  0.25000  0.38936  Biso   1.000  H
  O567     1.0000 0.79765  0.00000  0.33524  Biso   1.000  O
  C855     1.0000 0.84220  0.00000  0.38375  Biso   1.000  C
  H471     1.0000 0.81524  0.00000  0.38936  Biso   1.000  H
  O568     1.0000 0.79765  0.25000  0.08524  Biso   1.000  O
  C856     1.0000 0.84220  0.25000  0.13375  Biso   1.000  C
  H472     1.0000 0.81524  0.25000  0.13936  Biso   1.000  H
  O569     1.0000 0.95235  0.00000  0.08524  Biso   1.000  O
  C857     1.0000 0.90780  0.00000  0.13375  Biso   1.000  C
  H473     1.0000 0.93476  0.00000  0.13936  Biso   1.000  H
  O570     1.0000 0.95235  0.25000  0.33524  Biso   1.000  O
  C858     1.0000 0.90780  0.25000  0.38375  Biso   1.000  C
  H474     1.0000 0.93476  0.25000  0.38936  Biso   1.000  H
  O571     1.0000 0.70235  0.00000  0.33524  Biso   1.000  O
  C859     1.0000 0.65780  0.00000  0.38375  Biso   1.000  C
  H475     1.0000 0.68476  0.00000  0.38936  Biso   1.000  H
  O572     1.0000 0.70235  0.25000  0.08524  Biso   1.000  O
  C860     1.0000 0.65780  0.25000  0.13375  Biso   1.000  C
  H476     1.0000 0.68476  0.25000  0.13936  Biso   1.000  H
  O573     1.0000 0.95235  0.00000  0.41476  Biso   1.000  O
  C861     1.0000 0.90780  0.00000  0.36625  Biso   1.000  C
  H477     1.0000 0.93476  0.00000  0.36064  Biso   1.000  H
  O574     1.0000 0.95235  0.25000  0.16476  Biso   1.000  O
  C862     1.0000 0.90780  0.25000  0.11625  Biso   1.000  C
  H478     1.0000 0.93476  0.25000  0.11064  Biso   1.000  H
  O575     1.0000 0.70235  0.00000  0.16476  Biso   1.000  O
  C863     1.0000 0.65780  0.00000  0.11625  Biso   1.000  C
  H479     1.0000 0.68476  0.00000  0.11064  Biso   1.000  H
  O576     1.0000 0.70235  0.25000  0.41476  Biso   1.000  O
  C864     1.0000 0.65780  0.25000  0.36625  Biso   1.000  C
  H480     1.0000 0.68476  0.25000  0.36064  Biso   1.000  H
  O577     1.0000 0.52805  0.22195  0.22195  Biso   1.000  O
  O578     1.0000 0.77805  0.47195  0.22195  Biso   1.000  O
  O579     1.0000 0.77805  0.22195  0.47195  Biso   1.000  O
  O580     1.0000 0.72195  0.02805  0.22195  Biso   1.000  O
  O581     1.0000 0.72195  0.27805  0.47195  Biso   1.000  O
  O582     1.0000 0.97195  0.47195  0.02805  Biso   1.000  O
  O583     1.0000 0.97195  0.22195  0.27805  Biso   1.000  O
  O584     1.0000 0.52805  0.02805  0.02805  Biso   1.000  O
  O585     1.0000 0.77805  0.27805  0.02805  Biso   1.000  O
  O586     1.0000 0.97195  0.02805  0.02805  Biso   1.000  O
  O587     1.0000 0.97195  0.27805  0.27805  Biso   1.000  O
  O588     1.0000 0.72195  0.02805  0.27805  Biso   1.000  O
  O589     1.0000 0.72195  0.27805  0.02805  Biso   1.000  O
  O590     1.0000 0.52805  0.47195  0.02805  Biso   1.000  O
  O591     1.0000 0.52805  0.22195  0.27805  Biso   1.000  O
  O592     1.0000 0.77805  0.47195  0.27805  Biso   1.000  O
  O593     1.0000 0.77805  0.22195  0.02805  Biso   1.000  O
  O594     1.0000 0.97195  0.47195  0.47195  Biso   1.000  O
  O595     1.0000 0.97195  0.22195  0.22195  Biso   1.000  O
  O596     1.0000 0.72195  0.47195  0.22195  Biso   1.000  O
  O597     1.0000 0.72195  0.22195  0.47195  Biso   1.000  O
  O598     1.0000 0.52805  0.02805  0.47195  Biso   1.000  O
  O599     1.0000 0.52805  0.27805  0.22195  Biso   1.000  O
  O600     1.0000 0.77805  0.02805  0.22195  Biso   1.000  O
  C865     1.0000 0.57680  0.00000  0.42320  Biso   1.000  C
  C866     1.0000 0.57680  0.25000  0.17320  Biso   1.000  C
  C867     1.0000 0.82680  0.00000  0.17320  Biso   1.000  C
  C868     1.0000 0.82680  0.25000  0.42320  Biso   1.000  C
  C869     1.0000 0.92320  0.00000  0.42320  Biso   1.000  C
  C870     1.0000 0.92320  0.25000  0.17320  Biso   1.000  C
  C871     1.0000 0.67320  0.00000  0.17320  Biso   1.000  C
  C872     1.0000 0.67320  0.25000  0.42320  Biso   1.000  C
  C873     1.0000 0.92320  0.00000  0.07680  Biso   1.000  C
  C874     1.0000 0.92320  0.25000  0.32680  Biso   1.000  C
  C875     1.0000 0.67320  0.00000  0.32680  Biso   1.000  C
  C876     1.0000 0.67320  0.25000  0.07680  Biso   1.000  C
  C877     1.0000 0.57680  0.00000  0.07680  Biso   1.000  C
  C878     1.0000 0.57680  0.25000  0.32680  Biso   1.000  C
  C879     1.0000 0.82680  0.00000  0.32680  Biso   1.000  C
  C880     1.0000 0.82680  0.25000  0.07680  Biso   1.000  C
  C881     1.0000 0.92320  0.07680  0.00000  Biso   1.000  C
  C882     1.0000 0.92320  0.32680  0.25000  Biso   1.000  C
  C883     1.0000 0.67320  0.07680  0.25000  Biso   1.000  C
  C884     1.0000 0.67320  0.32680  0.00000  Biso   1.000  C
  C885     1.0000 0.92320  0.42320  0.00000  Biso   1.000  C
  C886     1.0000 0.92320  0.17320  0.25000  Biso   1.000  C
  C887     1.0000 0.67320  0.42320  0.25000  Biso   1.000  C
  C888     1.0000 0.67320  0.17320  0.00000  Biso   1.000  C
  C889     1.0000 0.57680  0.42320  0.00000  Biso   1.000  C
  C890     1.0000 0.57680  0.17320  0.25000  Biso   1.000  C
  C891     1.0000 0.82680  0.42320  0.25000  Biso   1.000  C
  C892     1.0000 0.82680  0.17320  0.00000  Biso   1.000  C
  C893     1.0000 0.57680  0.07680  0.00000  Biso   1.000  C
  C894     1.0000 0.57680  0.32680  0.25000  Biso   1.000  C
  C895     1.0000 0.82680  0.07680  0.25000  Biso   1.000  C
  C896     1.0000 0.82680  0.32680  0.00000  Biso   1.000  C
  C897     1.0000 0.50000  0.42320  0.07680  Biso   1.000  C
  C898     1.0000 0.50000  0.17320  0.32680  Biso   1.000  C
  C899     1.0000 0.75000  0.42320  0.32680  Biso   1.000  C
  C900     1.0000 0.75000  0.17320  0.07680  Biso   1.000  C
  C901     1.0000 0.50000  0.42320  0.42320  Biso   1.000  C
  C902     1.0000 0.50000  0.17320  0.17320  Biso   1.000  C
  C903     1.0000 0.75000  0.42320  0.17320  Biso   1.000  C
  C904     1.0000 0.75000  0.17320  0.42320  Biso   1.000  C
  C905     1.0000 0.50000  0.07680  0.42320  Biso   1.000  C
  C906     1.0000 0.50000  0.32680  0.17320  Biso   1.000  C
  C907     1.0000 0.75000  0.07680  0.17320  Biso   1.000  C
  C908     1.0000 0.75000  0.32680  0.42320  Biso   1.000  C
  C909     1.0000 0.50000  0.07680  0.07680  Biso   1.000  C
  C910     1.0000 0.50000  0.32680  0.32680  Biso   1.000  C
  C911     1.0000 0.75000  0.07680  0.32680  Biso   1.000  C
  C912     1.0000 0.75000  0.32680  0.07680  Biso   1.000  C
  C913     1.0000 0.60250  0.00000  0.10250  Biso   1.000  C
  C914     1.0000 0.60250  0.25000  0.35250  Biso   1.000  C
  C915     1.0000 0.85250  0.00000  0.35250  Biso   1.000  C
  C916     1.0000 0.85250  0.25000  0.10250  Biso   1.000  C
  C917     1.0000 0.89750  0.00000  0.10250  Biso   1.000  C
  C918     1.0000 0.89750  0.25000  0.35250  Biso   1.000  C
  C919     1.0000 0.64750  0.00000  0.35250  Biso   1.000  C
  C920     1.0000 0.64750  0.25000  0.10250  Biso   1.000  C
  C921     1.0000 0.89750  0.00000  0.39750  Biso   1.000  C
  C922     1.0000 0.89750  0.25000  0.14750  Biso   1.000  C
  C923     1.0000 0.64750  0.00000  0.14750  Biso   1.000  C
  C924     1.0000 0.64750  0.25000  0.39750  Biso   1.000  C
  C925     1.0000 0.60250  0.00000  0.39750  Biso   1.000  C
  C926     1.0000 0.60250  0.25000  0.14750  Biso   1.000  C
  C927     1.0000 0.85250  0.00000  0.14750  Biso   1.000  C
  C928     1.0000 0.85250  0.25000  0.39750  Biso   1.000  C
  C929     1.0000 0.60250  0.10250  0.00000  Biso   1.000  C
  C930     1.0000 0.60250  0.35250  0.25000  Biso   1.000  C
  C931     1.0000 0.85250  0.10250  0.25000  Biso   1.000  C
  C932     1.0000 0.85250  0.35250  0.00000  Biso   1.000  C
  C933     1.0000 0.60250  0.39750  0.00000  Biso   1.000  C
  C934     1.0000 0.60250  0.14750  0.25000  Biso   1.000  C
  C935     1.0000 0.85250  0.39750  0.25000  Biso   1.000  C
  C936     1.0000 0.85250  0.14750  0.00000  Biso   1.000  C
  C937     1.0000 0.89750  0.39750  0.00000  Biso   1.000  C
  C938     1.0000 0.89750  0.14750  0.25000  Biso   1.000  C
  C939     1.0000 0.64750  0.39750  0.25000  Biso   1.000  C
  C940     1.0000 0.64750  0.14750  0.00000  Biso   1.000  C
  C941     1.0000 0.89750  0.10250  0.00000  Biso   1.000  C
  C942     1.0000 0.89750  0.35250  0.25000  Biso   1.000  C
  C943     1.0000 0.64750  0.10250  0.25000  Biso   1.000  C
  C944     1.0000 0.64750  0.35250  0.00000  Biso   1.000  C
  C945     1.0000 0.50000  0.10250  0.10250  Biso   1.000  C
  C946     1.0000 0.50000  0.35250  0.35250  Biso   1.000  C
  C947     1.0000 0.75000  0.10250  0.35250  Biso   1.000  C
  C948     1.0000 0.75000  0.35250  0.10250  Biso   1.000  C
  C949     1.0000 0.50000  0.10250  0.39750  Biso   1.000  C
  C950     1.0000 0.50000  0.35250  0.14750  Biso   1.000  C
  C951     1.0000 0.75000  0.10250  0.14750  Biso   1.000  C
  C952     1.0000 0.75000  0.35250  0.39750  Biso   1.000  C
  C953     1.0000 0.50000  0.39750  0.39750  Biso   1.000  C
  C954     1.0000 0.50000  0.14750  0.14750  Biso   1.000  C
  C955     1.0000 0.75000  0.39750  0.14750  Biso   1.000  C
  C956     1.0000 0.75000  0.14750  0.39750  Biso   1.000  C
  C957     1.0000 0.50000  0.39750  0.10250  Biso   1.000  C
  C958     1.0000 0.50000  0.14750  0.35250  Biso   1.000  C
  C959     1.0000 0.75000  0.39750  0.35250  Biso   1.000  C
  C960     1.0000 0.75000  0.14750  0.10250  Biso   1.000  C
  Zr121    1.0000 0.55994  0.00000  0.50000  Biso   1.000  Zr
  Zr122    1.0000 0.55994  0.25000  0.75000  Biso   1.000  Zr
  Zr123    1.0000 0.80994  0.00000  0.75000  Biso   1.000  Zr
  Zr124    1.0000 0.80994  0.25000  0.50000  Biso   1.000  Zr
  Zr125    1.0000 0.94005  0.00000  0.50000  Biso   1.000  Zr
  Zr126    1.0000 0.94005  0.25000  0.75000  Biso   1.000  Zr
  Zr127    1.0000 0.69005  0.00000  0.75000  Biso   1.000  Zr
  Zr128    1.0000 0.69005  0.25000  0.50000  Biso   1.000  Zr
  Zr129    1.0000 0.50000  0.05994  0.50000  Biso   1.000  Zr
  Zr130    1.0000 0.50000  0.30995  0.75000  Biso   1.000  Zr
  Zr131    1.0000 0.75000  0.05994  0.75000  Biso   1.000  Zr
  Zr132    1.0000 0.75000  0.30995  0.50000  Biso   1.000  Zr
  Zr133    1.0000 0.50000  0.44005  0.50000  Biso   1.000  Zr
  Zr134    1.0000 0.50000  0.19006  0.75000  Biso   1.000  Zr
  Zr135    1.0000 0.75000  0.44005  0.75000  Biso   1.000  Zr
  Zr136    1.0000 0.75000  0.19006  0.50000  Biso   1.000  Zr
  Zr137    1.0000 0.50000  0.00000  0.55994  Biso   1.000  Zr
  Zr138    1.0000 0.50000  0.25000  0.80994  Biso   1.000  Zr
  Zr139    1.0000 0.75000  0.00000  0.80994  Biso   1.000  Zr
  Zr140    1.0000 0.75000  0.25000  0.55994  Biso   1.000  Zr
  Zr141    1.0000 0.50000  0.00000  0.94005  Biso   1.000  Zr
  Zr142    1.0000 0.50000  0.25000  0.69005  Biso   1.000  Zr
  Zr143    1.0000 0.75000  0.00000  0.69005  Biso   1.000  Zr
  Zr144    1.0000 0.75000  0.25000  0.94005  Biso   1.000  Zr
  O601     1.0000 0.58523  0.00000  0.54765  Biso   1.000  O
  C961     1.0000 0.63375  0.00000  0.59220  Biso   1.000  C
  H481     1.0000 0.63936  0.00000  0.56524  Biso   1.000  H
  O602     1.0000 0.58523  0.25000  0.79765  Biso   1.000  O
  C962     1.0000 0.63375  0.25000  0.84220  Biso   1.000  C
  H482     1.0000 0.63936  0.25000  0.81524  Biso   1.000  H
  O603     1.0000 0.83524  0.00000  0.79765  Biso   1.000  O
  C963     1.0000 0.88375  0.00000  0.84220  Biso   1.000  C
  H483     1.0000 0.88936  0.00000  0.81524  Biso   1.000  H
  O604     1.0000 0.83524  0.25000  0.54765  Biso   1.000  O
  C964     1.0000 0.88375  0.25000  0.59220  Biso   1.000  C
  H484     1.0000 0.88936  0.25000  0.56524  Biso   1.000  H
  O605     1.0000 0.91477  0.00000  0.54765  Biso   1.000  O
  C965     1.0000 0.86625  0.00000  0.59220  Biso   1.000  C
  H485     1.0000 0.86064  0.00000  0.56524  Biso   1.000  H
  O606     1.0000 0.91477  0.25000  0.79765  Biso   1.000  O
  C966     1.0000 0.86625  0.25000  0.84220  Biso   1.000  C
  H486     1.0000 0.86064  0.25000  0.81524  Biso   1.000  H
  O607     1.0000 0.66476  0.00000  0.79765  Biso   1.000  O
  C967     1.0000 0.61625  0.00000  0.84220  Biso   1.000  C
  H487     1.0000 0.61064  0.00000  0.81524  Biso   1.000  H
  O608     1.0000 0.66476  0.25000  0.54765  Biso   1.000  O
  C968     1.0000 0.61625  0.25000  0.59220  Biso   1.000  C
  H488     1.0000 0.61064  0.25000  0.56524  Biso   1.000  H
  O609     1.0000 0.91477  0.00000  0.95235  Biso   1.000  O
  C969     1.0000 0.86625  0.00000  0.90780  Biso   1.000  C
  H489     1.0000 0.86064  0.00000  0.93476  Biso   1.000  H
  O610     1.0000 0.91477  0.25000  0.70235  Biso   1.000  O
  C970     1.0000 0.86625  0.25000  0.65780  Biso   1.000  C
  H490     1.0000 0.86064  0.25000  0.68476  Biso   1.000  H
  O611     1.0000 0.66476  0.00000  0.70235  Biso   1.000  O
  C971     1.0000 0.61625  0.00000  0.65780  Biso   1.000  C
  H491     1.0000 0.61064  0.00000  0.68476  Biso   1.000  H
  O612     1.0000 0.66476  0.25000  0.95235  Biso   1.000  O
  C972     1.0000 0.61625  0.25000  0.90780  Biso   1.000  C
  H492     1.0000 0.61064  0.25000  0.93476  Biso   1.000  H
  O613     1.0000 0.58523  0.00000  0.95235  Biso   1.000  O
  C973     1.0000 0.63375  0.00000  0.90780  Biso   1.000  C
  H493     1.0000 0.63936  0.00000  0.93476  Biso   1.000  H
  O614     1.0000 0.58523  0.25000  0.70235  Biso   1.000  O
  C974     1.0000 0.63375  0.25000  0.65780  Biso   1.000  C
  H494     1.0000 0.63936  0.25000  0.68476  Biso   1.000  H
  O615     1.0000 0.83524  0.00000  0.70235  Biso   1.000  O
  C975     1.0000 0.88375  0.00000  0.65780  Biso   1.000  C
  H495     1.0000 0.88936  0.00000  0.68476  Biso   1.000  H
  O616     1.0000 0.83524  0.25000  0.95235  Biso   1.000  O
  C976     1.0000 0.88375  0.25000  0.90780  Biso   1.000  C
  H496     1.0000 0.88936  0.25000  0.93476  Biso   1.000  H
  O617     1.0000 0.54765  0.08524  0.50000  Biso   1.000  O
  C977     1.0000 0.59220  0.13375  0.50000  Biso   1.000  C
  H497     1.0000 0.56524  0.13936  0.50000  Biso   1.000  H
  O618     1.0000 0.54765  0.33524  0.75000  Biso   1.000  O
  C978     1.0000 0.59220  0.38375  0.75000  Biso   1.000  C
  H498     1.0000 0.56524  0.38936  0.75000  Biso   1.000  H
  O619     1.0000 0.79765  0.08524  0.75000  Biso   1.000  O
  C979     1.0000 0.84220  0.13375  0.75000  Biso   1.000  C
  H499     1.0000 0.81524  0.13936  0.75000  Biso   1.000  H
  O620     1.0000 0.79765  0.33524  0.50000  Biso   1.000  O
  C980     1.0000 0.84220  0.38375  0.50000  Biso   1.000  C
  H500     1.0000 0.81524  0.38936  0.50000  Biso   1.000  H
  O621     1.0000 0.54765  0.41476  0.50000  Biso   1.000  O
  C981     1.0000 0.59220  0.36625  0.50000  Biso   1.000  C
  H501     1.0000 0.56524  0.36064  0.50000  Biso   1.000  H
  O622     1.0000 0.54765  0.16476  0.75000  Biso   1.000  O
  C982     1.0000 0.59220  0.11625  0.75000  Biso   1.000  C
  H502     1.0000 0.56524  0.11064  0.75000  Biso   1.000  H
  O623     1.0000 0.79765  0.41476  0.75000  Biso   1.000  O
  C983     1.0000 0.84220  0.36625  0.75000  Biso   1.000  C
  H503     1.0000 0.81524  0.36064  0.75000  Biso   1.000  H
  O624     1.0000 0.79765  0.16476  0.50000  Biso   1.000  O
  C984     1.0000 0.84220  0.11625  0.50000  Biso   1.000  C
  H504     1.0000 0.81524  0.11064  0.50000  Biso   1.000  H
  O625     1.0000 0.95235  0.41476  0.50000  Biso   1.000  O
  C985     1.0000 0.90780  0.36625  0.50000  Biso   1.000  C
  H505     1.0000 0.93476  0.36064  0.50000  Biso   1.000  H
  O626     1.0000 0.95235  0.16476  0.75000  Biso   1.000  O
  C986     1.0000 0.90780  0.11625  0.75000  Biso   1.000  C
  H506     1.0000 0.93476  0.11064  0.75000  Biso   1.000  H
  O627     1.0000 0.70235  0.41476  0.75000  Biso   1.000  O
  C987     1.0000 0.65780  0.36625  0.75000  Biso   1.000  C
  H507     1.0000 0.68476  0.36064  0.75000  Biso   1.000  H
  O628     1.0000 0.70235  0.16476  0.50000  Biso   1.000  O
  C988     1.0000 0.65780  0.11625  0.50000  Biso   1.000  C
  H508     1.0000 0.68476  0.11064  0.50000  Biso   1.000  H
  O629     1.0000 0.95235  0.08524  0.50000  Biso   1.000  O
  C989     1.0000 0.90780  0.13375  0.50000  Biso   1.000  C
  H509     1.0000 0.93476  0.13936  0.50000  Biso   1.000  H
  O630     1.0000 0.95235  0.33524  0.75000  Biso   1.000  O
  C990     1.0000 0.90780  0.38375  0.75000  Biso   1.000  C
  H510     1.0000 0.93476  0.38936  0.75000  Biso   1.000  H
  O631     1.0000 0.70235  0.08524  0.75000  Biso   1.000  O
  C991     1.0000 0.65780  0.13375  0.75000  Biso   1.000  C
  H511     1.0000 0.68476  0.13936  0.75000  Biso   1.000  H
  O632     1.0000 0.70235  0.33524  0.50000  Biso   1.000  O
  C992     1.0000 0.65780  0.38375  0.50000  Biso   1.000  C
  H512     1.0000 0.68476  0.38936  0.50000  Biso   1.000  H
  O633     1.0000 0.50000  0.04765  0.58523  Biso   1.000  O
  C993     1.0000 0.50000  0.09220  0.63375  Biso   1.000  C
  H513     1.0000 0.50000  0.06524  0.63936  Biso   1.000  H
  O634     1.0000 0.50000  0.29765  0.83524  Biso   1.000  O
  C994     1.0000 0.50000  0.34220  0.88375  Biso   1.000  C
  H514     1.0000 0.50000  0.31524  0.88936  Biso   1.000  H
  O635     1.0000 0.75000  0.04765  0.83524  Biso   1.000  O
  C995     1.0000 0.75000  0.09220  0.88375  Biso   1.000  C
  H515     1.0000 0.75000  0.06524  0.88936  Biso   1.000  H
  O636     1.0000 0.75000  0.29765  0.58523  Biso   1.000  O
  C996     1.0000 0.75000  0.34220  0.63375  Biso   1.000  C
  H516     1.0000 0.75000  0.31524  0.63936  Biso   1.000  H
  O637     1.0000 0.50000  0.04765  0.91477  Biso   1.000  O
  C997     1.0000 0.50000  0.09220  0.86625  Biso   1.000  C
  H517     1.0000 0.50000  0.06524  0.86064  Biso   1.000  H
  O638     1.0000 0.50000  0.29765  0.66476  Biso   1.000  O
  C998     1.0000 0.50000  0.34220  0.61625  Biso   1.000  C
  H518     1.0000 0.50000  0.31524  0.61064  Biso   1.000  H
  O639     1.0000 0.75000  0.04765  0.66476  Biso   1.000  O
  C999     1.0000 0.75000  0.09220  0.61625  Biso   1.000  C
  H519     1.0000 0.75000  0.06524  0.61064  Biso   1.000  H
  O640     1.0000 0.75000  0.29765  0.91477  Biso   1.000  O
  C1000    1.0000 0.75000  0.34220  0.86625  Biso   1.000  C
  H520     1.0000 0.75000  0.31524  0.86064  Biso   1.000  H
  O641     1.0000 0.50000  0.45235  0.91477  Biso   1.000  O
  C1001    1.0000 0.50000  0.40780  0.86625  Biso   1.000  C
  H521     1.0000 0.50000  0.43476  0.86064  Biso   1.000  H
  O642     1.0000 0.50000  0.20235  0.66476  Biso   1.000  O
  C1002    1.0000 0.50000  0.15780  0.61625  Biso   1.000  C
  H522     1.0000 0.50000  0.18476  0.61064  Biso   1.000  H
  O643     1.0000 0.75000  0.45235  0.66476  Biso   1.000  O
  C1003    1.0000 0.75000  0.40780  0.61625  Biso   1.000  C
  H523     1.0000 0.75000  0.43476  0.61064  Biso   1.000  H
  O644     1.0000 0.75000  0.20235  0.91477  Biso   1.000  O
  C1004    1.0000 0.75000  0.15780  0.86625  Biso   1.000  C
  H524     1.0000 0.75000  0.18476  0.86064  Biso   1.000  H
  O645     1.0000 0.50000  0.45235  0.58523  Biso   1.000  O
  C1005    1.0000 0.50000  0.40780  0.63375  Biso   1.000  C
  H525     1.0000 0.50000  0.43476  0.63936  Biso   1.000  H
  O646     1.0000 0.50000  0.20235  0.83524  Biso   1.000  O
  C1006    1.0000 0.50000  0.15780  0.88375  Biso   1.000  C
  H526     1.0000 0.50000  0.18476  0.88936  Biso   1.000  H
  O647     1.0000 0.75000  0.45235  0.83524  Biso   1.000  O
  C1007    1.0000 0.75000  0.40780  0.88375  Biso   1.000  C
  H527     1.0000 0.75000  0.43476  0.88936  Biso   1.000  H
  O648     1.0000 0.75000  0.20235  0.58523  Biso   1.000  O
  C1008    1.0000 0.75000  0.15780  0.63375  Biso   1.000  C
  H528     1.0000 0.75000  0.18476  0.63936  Biso   1.000  H
  O649     1.0000 0.50000  0.08524  0.95235  Biso   1.000  O
  C1009    1.0000 0.50000  0.13375  0.90780  Biso   1.000  C
  H529     1.0000 0.50000  0.13936  0.93476  Biso   1.000  H
  O650     1.0000 0.50000  0.33524  0.70235  Biso   1.000  O
  C1010    1.0000 0.50000  0.38375  0.65780  Biso   1.000  C
  H530     1.0000 0.50000  0.38936  0.68476  Biso   1.000  H
  O651     1.0000 0.75000  0.08524  0.70235  Biso   1.000  O
  C1011    1.0000 0.75000  0.13375  0.65780  Biso   1.000  C
  H531     1.0000 0.75000  0.13936  0.68476  Biso   1.000  H
  O652     1.0000 0.75000  0.33524  0.95235  Biso   1.000  O
  C1012    1.0000 0.75000  0.38375  0.90780  Biso   1.000  C
  H532     1.0000 0.75000  0.38936  0.93476  Biso   1.000  H
  O653     1.0000 0.50000  0.41476  0.95235  Biso   1.000  O
  C1013    1.0000 0.50000  0.36625  0.90780  Biso   1.000  C
  H533     1.0000 0.50000  0.36064  0.93476  Biso   1.000  H
  O654     1.0000 0.50000  0.16476  0.70235  Biso   1.000  O
  C1014    1.0000 0.50000  0.11625  0.65780  Biso   1.000  C
  H534     1.0000 0.50000  0.11064  0.68476  Biso   1.000  H
  O655     1.0000 0.75000  0.41476  0.70235  Biso   1.000  O
  C1015    1.0000 0.75000  0.36625  0.65780  Biso   1.000  C
  H535     1.0000 0.75000  0.36064  0.68476  Biso   1.000  H
  O656     1.0000 0.75000  0.16476  0.95235  Biso   1.000  O
  C1016    1.0000 0.75000  0.11625  0.90780  Biso   1.000  C
  H536     1.0000 0.75000  0.11064  0.93476  Biso   1.000  H
  O657     1.0000 0.50000  0.41476  0.54765  Biso   1.000  O
  C1017    1.0000 0.50000  0.36625  0.59220  Biso   1.000  C
  H537     1.0000 0.50000  0.36064  0.56524  Biso   1.000  H
  O658     1.0000 0.50000  0.16476  0.79765  Biso   1.000  O
  C1018    1.0000 0.50000  0.11625  0.84220  Biso   1.000  C
  H538     1.0000 0.50000  0.11064  0.81524  Biso   1.000  H
  O659     1.0000 0.75000  0.41476  0.79765  Biso   1.000  O
  C1019    1.0000 0.75000  0.36625  0.84220  Biso   1.000  C
  H539     1.0000 0.75000  0.36064  0.81524  Biso   1.000  H
  O660     1.0000 0.75000  0.16476  0.54765  Biso   1.000  O
  C1020    1.0000 0.75000  0.11625  0.59220  Biso   1.000  C
  H540     1.0000 0.75000  0.11064  0.56524  Biso   1.000  H
  O661     1.0000 0.50000  0.08524  0.54765  Biso   1.000  O
  C1021    1.0000 0.50000  0.13375  0.59220  Biso   1.000  C
  H541     1.0000 0.50000  0.13936  0.56524  Biso   1.000  H
  O662     1.0000 0.50000  0.33524  0.79765  Biso   1.000  O
  C1022    1.0000 0.50000  0.38375  0.84220  Biso   1.000  C
  H542     1.0000 0.50000  0.38936  0.81524  Biso   1.000  H
  O663     1.0000 0.75000  0.08524  0.79765  Biso   1.000  O
  C1023    1.0000 0.75000  0.13375  0.84220  Biso   1.000  C
  H543     1.0000 0.75000  0.13936  0.81524  Biso   1.000  H
  O664     1.0000 0.75000  0.33524  0.54765  Biso   1.000  O
  C1024    1.0000 0.75000  0.38375  0.59220  Biso   1.000  C
  H544     1.0000 0.75000  0.38936  0.56524  Biso   1.000  H
  O665     1.0000 0.58523  0.04765  0.50000  Biso   1.000  O
  C1025    1.0000 0.63375  0.09220  0.50000  Biso   1.000  C
  H545     1.0000 0.63936  0.06524  0.50000  Biso   1.000  H
  O666     1.0000 0.58523  0.29765  0.75000  Biso   1.000  O
  C1026    1.0000 0.63375  0.34220  0.75000  Biso   1.000  C
  H546     1.0000 0.63936  0.31524  0.75000  Biso   1.000  H
  O667     1.0000 0.83524  0.04765  0.75000  Biso   1.000  O
  C1027    1.0000 0.88375  0.09220  0.75000  Biso   1.000  C
  H547     1.0000 0.88936  0.06524  0.75000  Biso   1.000  H
  O668     1.0000 0.83524  0.29765  0.50000  Biso   1.000  O
  C1028    1.0000 0.88375  0.34220  0.50000  Biso   1.000  C
  H548     1.0000 0.88936  0.31524  0.50000  Biso   1.000  H
  O669     1.0000 0.91477  0.04765  0.50000  Biso   1.000  O
  C1029    1.0000 0.86625  0.09220  0.50000  Biso   1.000  C
  H549     1.0000 0.86064  0.06524  0.50000  Biso   1.000  H
  O670     1.0000 0.91477  0.29765  0.75000  Biso   1.000  O
  C1030    1.0000 0.86625  0.34220  0.75000  Biso   1.000  C
  H550     1.0000 0.86064  0.31524  0.75000  Biso   1.000  H
  O671     1.0000 0.66476  0.04765  0.75000  Biso   1.000  O
  C1031    1.0000 0.61625  0.09220  0.75000  Biso   1.000  C
  H551     1.0000 0.61064  0.06524  0.75000  Biso   1.000  H
  O672     1.0000 0.66476  0.29765  0.50000  Biso   1.000  O
  C1032    1.0000 0.61625  0.34220  0.50000  Biso   1.000  C
  H552     1.0000 0.61064  0.31524  0.50000  Biso   1.000  H
  O673     1.0000 0.91477  0.45235  0.50000  Biso   1.000  O
  C1033    1.0000 0.86625  0.40780  0.50000  Biso   1.000  C
  H553     1.0000 0.86064  0.43476  0.50000  Biso   1.000  H
  O674     1.0000 0.91477  0.20235  0.75000  Biso   1.000  O
  C1034    1.0000 0.86625  0.15780  0.75000  Biso   1.000  C
  H554     1.0000 0.86064  0.18476  0.75000  Biso   1.000  H
  O675     1.0000 0.66476  0.45235  0.75000  Biso   1.000  O
  C1035    1.0000 0.61625  0.40780  0.75000  Biso   1.000  C
  H555     1.0000 0.61064  0.43476  0.75000  Biso   1.000  H
  O676     1.0000 0.66476  0.20235  0.50000  Biso   1.000  O
  C1036    1.0000 0.61625  0.15780  0.50000  Biso   1.000  C
  H556     1.0000 0.61064  0.18476  0.50000  Biso   1.000  H
  O677     1.0000 0.58523  0.45235  0.50000  Biso   1.000  O
  C1037    1.0000 0.63375  0.40780  0.50000  Biso   1.000  C
  H557     1.0000 0.63936  0.43476  0.50000  Biso   1.000  H
  O678     1.0000 0.58523  0.20235  0.75000  Biso   1.000  O
  C1038    1.0000 0.63375  0.15780  0.75000  Biso   1.000  C
  H558     1.0000 0.63936  0.18476  0.75000  Biso   1.000  H
  O679     1.0000 0.83524  0.45235  0.75000  Biso   1.000  O
  C1039    1.0000 0.88375  0.40780  0.75000  Biso   1.000  C
  H559     1.0000 0.88936  0.43476  0.75000  Biso   1.000  H
  O680     1.0000 0.83524  0.20235  0.50000  Biso   1.000  O
  C1040    1.0000 0.88375  0.15780  0.50000  Biso   1.000  C
  H560     1.0000 0.88936  0.18476  0.50000  Biso   1.000  H
  O681     1.0000 0.54765  0.00000  0.91477  Biso   1.000  O
  C1041    1.0000 0.59220  0.00000  0.86625  Biso   1.000  C
  H561     1.0000 0.56524  0.00000  0.86064  Biso   1.000  H
  O682     1.0000 0.54765  0.25000  0.66476  Biso   1.000  O
  C1042    1.0000 0.59220  0.25000  0.61625  Biso   1.000  C
  H562     1.0000 0.56524  0.25000  0.61064  Biso   1.000  H
  O683     1.0000 0.79765  0.00000  0.66476  Biso   1.000  O
  C1043    1.0000 0.84220  0.00000  0.61625  Biso   1.000  C
  H563     1.0000 0.81524  0.00000  0.61064  Biso   1.000  H
  O684     1.0000 0.79765  0.25000  0.91477  Biso   1.000  O
  C1044    1.0000 0.84220  0.25000  0.86625  Biso   1.000  C
  H564     1.0000 0.81524  0.25000  0.86064  Biso   1.000  H
  O685     1.0000 0.54765  0.00000  0.58523  Biso   1.000  O
  C1045    1.0000 0.59220  0.00000  0.63375  Biso   1.000  C
  H565     1.0000 0.56524  0.00000  0.63936  Biso   1.000  H
  O686     1.0000 0.54765  0.25000  0.83524  Biso   1.000  O
  C1046    1.0000 0.59220  0.25000  0.88375  Biso   1.000  C
  H566     1.0000 0.56524  0.25000  0.88936  Biso   1.000  H
  O687     1.0000 0.79765  0.00000  0.83524  Biso   1.000  O
  C1047    1.0000 0.84220  0.00000  0.88375  Biso   1.000  C
  H567     1.0000 0.81524  0.00000  0.88936  Biso   1.000  H
  O688     1.0000 0.79765  0.25000  0.58523  Biso   1.000  O
  C1048    1.0000 0.84220  0.25000  0.63375  Biso   1.000  C
  H568     1.0000 0.81524  0.25000  0.63936  Biso   1.000  H
  O689     1.0000 0.95235  0.00000  0.58523  Biso   1.000  O
  C1049    1.0000 0.90780  0.00000  0.63375  Biso   1.000  C
  H569     1.0000 0.93476  0.00000  0.63936  Biso   1.000  H
  O690     1.0000 0.95235  0.25000  0.83524  Biso   1.000  O
  C1050    1.0000 0.90780  0.25000  0.88375  Biso   1.000  C
  H570     1.0000 0.93476  0.25000  0.88936  Biso   1.000  H
  O691     1.0000 0.70235  0.00000  0.83524  Biso   1.000  O
  C1051    1.0000 0.65780  0.00000  0.88375  Biso   1.000  C
  H571     1.0000 0.68476  0.00000  0.88936  Biso   1.000  H
  O692     1.0000 0.70235  0.25000  0.58523  Biso   1.000  O
  C1052    1.0000 0.65780  0.25000  0.63375  Biso   1.000  C
  H572     1.0000 0.68476  0.25000  0.63936  Biso   1.000  H
  O693     1.0000 0.95235  0.00000  0.91477  Biso   1.000  O
  C1053    1.0000 0.90780  0.00000  0.86625  Biso   1.000  C
  H573     1.0000 0.93476  0.00000  0.86064  Biso   1.000  H
  O694     1.0000 0.95235  0.25000  0.66476  Biso   1.000  O
  C1054    1.0000 0.90780  0.25000  0.61625  Biso   1.000  C
  H574     1.0000 0.93476  0.25000  0.61064  Biso   1.000  H
  O695     1.0000 0.70235  0.00000  0.66476  Biso   1.000  O
  C1055    1.0000 0.65780  0.00000  0.61625  Biso   1.000  C
  H575     1.0000 0.68476  0.00000  0.61064  Biso   1.000  H
  O696     1.0000 0.70235  0.25000  0.91477  Biso   1.000  O
  C1056    1.0000 0.65780  0.25000  0.86625  Biso   1.000  C
  H576     1.0000 0.68476  0.25000  0.86064  Biso   1.000  H
  O697     1.0000 0.52805  0.22195  0.72195  Biso   1.000  O
  O698     1.0000 0.77805  0.47195  0.72195  Biso   1.000  O
  O699     1.0000 0.77805  0.22195  0.97195  Biso   1.000  O
  O700     1.0000 0.72195  0.02805  0.72195  Biso   1.000  O
  O701     1.0000 0.72195  0.27805  0.97195  Biso   1.000  O
  O702     1.0000 0.97195  0.47195  0.52805  Biso   1.000  O
  O703     1.0000 0.97195  0.22195  0.77805  Biso   1.000  O
  O704     1.0000 0.52805  0.02805  0.52805  Biso   1.000  O
  O705     1.0000 0.77805  0.27805  0.52805  Biso   1.000  O
  O706     1.0000 0.97195  0.02805  0.52805  Biso   1.000  O
  O707     1.0000 0.97195  0.27805  0.77805  Biso   1.000  O
  O708     1.0000 0.72195  0.02805  0.77805  Biso   1.000  O
  O709     1.0000 0.72195  0.27805  0.52805  Biso   1.000  O
  O710     1.0000 0.52805  0.47195  0.52805  Biso   1.000  O
  O711     1.0000 0.52805  0.22195  0.77805  Biso   1.000  O
  O712     1.0000 0.77805  0.47195  0.77805  Biso   1.000  O
  O713     1.0000 0.77805  0.22195  0.52805  Biso   1.000  O
  O714     1.0000 0.97195  0.47195  0.97195  Biso   1.000  O
  O715     1.0000 0.97195  0.22195  0.72195  Biso   1.000  O
  O716     1.0000 0.72195  0.47195  0.72195  Biso   1.000  O
  O717     1.0000 0.72195  0.22195  0.97195  Biso   1.000  O
  O718     1.0000 0.52805  0.02805  0.97195  Biso   1.000  O
  O719     1.0000 0.52805  0.27805  0.72195  Biso   1.000  O
  O720     1.0000 0.77805  0.02805  0.72195  Biso   1.000  O
  C1057    1.0000 0.57680  0.00000  0.92320  Biso   1.000  C
  C1058    1.0000 0.57680  0.25000  0.67320  Biso   1.000  C
  C1059    1.0000 0.82680  0.00000  0.67320  Biso   1.000  C
  C1060    1.0000 0.82680  0.25000  0.92320  Biso   1.000  C
  C1061    1.0000 0.92320  0.00000  0.92320  Biso   1.000  C
  C1062    1.0000 0.92320  0.25000  0.67320  Biso   1.000  C
  C1063    1.0000 0.67320  0.00000  0.67320  Biso   1.000  C
  C1064    1.0000 0.67320  0.25000  0.92320  Biso   1.000  C
  C1065    1.0000 0.92320  0.00000  0.57680  Biso   1.000  C
  C1066    1.0000 0.92320  0.25000  0.82680  Biso   1.000  C
  C1067    1.0000 0.67320  0.00000  0.82680  Biso   1.000  C
  C1068    1.0000 0.67320  0.25000  0.57680  Biso   1.000  C
  C1069    1.0000 0.57680  0.00000  0.57680  Biso   1.000  C
  C1070    1.0000 0.57680  0.25000  0.82680  Biso   1.000  C
  C1071    1.0000 0.82680  0.00000  0.82680  Biso   1.000  C
  C1072    1.0000 0.82680  0.25000  0.57680  Biso   1.000  C
  C1073    1.0000 0.92320  0.07680  0.50000  Biso   1.000  C
  C1074    1.0000 0.92320  0.32680  0.75000  Biso   1.000  C
  C1075    1.0000 0.67320  0.07680  0.75000  Biso   1.000  C
  C1076    1.0000 0.67320  0.32680  0.50000  Biso   1.000  C
  C1077    1.0000 0.92320  0.42320  0.50000  Biso   1.000  C
  C1078    1.0000 0.92320  0.17320  0.75000  Biso   1.000  C
  C1079    1.0000 0.67320  0.42320  0.75000  Biso   1.000  C
  C1080    1.0000 0.67320  0.17320  0.50000  Biso   1.000  C
  C1081    1.0000 0.57680  0.42320  0.50000  Biso   1.000  C
  C1082    1.0000 0.57680  0.17320  0.75000  Biso   1.000  C
  C1083    1.0000 0.82680  0.42320  0.75000  Biso   1.000  C
  C1084    1.0000 0.82680  0.17320  0.50000  Biso   1.000  C
  C1085    1.0000 0.57680  0.07680  0.50000  Biso   1.000  C
  C1086    1.0000 0.57680  0.32680  0.75000  Biso   1.000  C
  C1087    1.0000 0.82680  0.07680  0.75000  Biso   1.000  C
  C1088    1.0000 0.82680  0.32680  0.50000  Biso   1.000  C
  C1089    1.0000 0.50000  0.42320  0.57680  Biso   1.000  C
  C1090    1.0000 0.50000  0.17320  0.82680  Biso   1.000  C
  C1091    1.0000 0.75000  0.42320  0.82680  Biso   1.000  C
  C1092    1.0000 0.75000  0.17320  0.57680  Biso   1.000  C
  C1093    1.0000 0.50000  0.42320  0.92320  Biso   1.000  C
  C1094    1.0000 0.50000  0.17320  0.67320  Biso   1.000  C
  C1095    1.0000 0.75000  0.42320  0.67320  Biso   1.000  C
  C1096    1.0000 0.75000  0.17320  0.92320  Biso   1.000  C
  C1097    1.0000 0.50000  0.07680  0.92320  Biso   1.000  C
  C1098    1.0000 0.50000  0.32680  0.67320  Biso   1.000  C
  C1099    1.0000 0.75000  0.07680  0.67320  Biso   1.000  C
  C1100    1.0000 0.75000  0.32680  0.92320  Biso   1.000  C
  C1101    1.0000 0.50000  0.07680  0.57680  Biso   1.000  C
  C1102    1.0000 0.50000  0.32680  0.82680  Biso   1.000  C
  C1103    1.0000 0.75000  0.07680  0.82680  Biso   1.000  C
  C1104    1.0000 0.75000  0.32680  0.57680  Biso   1.000  C
  C1105    1.0000 0.60250  0.00000  0.60250  Biso   1.000  C
  C1106    1.0000 0.60250  0.25000  0.85250  Biso   1.000  C
  C1107    1.0000 0.85250  0.00000  0.85250  Biso   1.000  C
  C1108    1.0000 0.85250  0.25000  0.60250  Biso   1.000  C
  C1109    1.0000 0.89750  0.00000  0.60250  Biso   1.000  C
  C1110    1.0000 0.89750  0.25000  0.85250  Biso   1.000  C
  C1111    1.0000 0.64750  0.00000  0.85250  Biso   1.000  C
  C1112    1.0000 0.64750  0.25000  0.60250  Biso   1.000  C
  C1113    1.0000 0.89750  0.00000  0.89750  Biso   1.000  C
  C1114    1.0000 0.89750  0.25000  0.64750  Biso   1.000  C
  C1115    1.0000 0.64750  0.00000  0.64750  Biso   1.000  C
  C1116    1.0000 0.64750  0.25000  0.89750  Biso   1.000  C
  C1117    1.0000 0.60250  0.00000  0.89750  Biso   1.000  C
  C1118    1.0000 0.60250  0.25000  0.64750  Biso   1.000  C
  C1119    1.0000 0.85250  0.00000  0.64750  Biso   1.000  C
  C1120    1.0000 0.85250  0.25000  0.89750  Biso   1.000  C
  C1121    1.0000 0.60250  0.10250  0.50000  Biso   1.000  C
  C1122    1.0000 0.60250  0.35250  0.75000  Biso   1.000  C
  C1123    1.0000 0.85250  0.10250  0.75000  Biso   1.000  C
  C1124    1.0000 0.85250  0.35250  0.50000  Biso   1.000  C
  C1125    1.0000 0.60250  0.39750  0.50000  Biso   1.000  C
  C1126    1.0000 0.60250  0.14750  0.75000  Biso   1.000  C
  C1127    1.0000 0.85250  0.39750  0.75000  Biso   1.000  C
  C1128    1.0000 0.85250  0.14750  0.50000  Biso   1.000  C
  C1129    1.0000 0.89750  0.39750  0.50000  Biso   1.000  C
  C1130    1.0000 0.89750  0.14750  0.75000  Biso   1.000  C
  C1131    1.0000 0.64750  0.39750  0.75000  Biso   1.000  C
  C1132    1.0000 0.64750  0.14750  0.50000  Biso   1.000  C
  C1133    1.0000 0.89750  0.10250  0.50000  Biso   1.000  C
  C1134    1.0000 0.89750  0.35250  0.75000  Biso   1.000  C
  C1135    1.0000 0.64750  0.10250  0.75000  Biso   1.000  C
  C1136    1.0000 0.64750  0.35250  0.50000  Biso   1.000  C
  C1137    1.0000 0.50000  0.10250  0.60250  Biso   1.000  C
  C1138    1.0000 0.50000  0.35250  0.85250  Biso   1.000  C
  C1139    1.0000 0.75000  0.10250  0.85250  Biso   1.000  C
  C1140    1.0000 0.75000  0.35250  0.60250  Biso   1.000  C
  C1141    1.0000 0.50000  0.10250  0.89750  Biso   1.000  C
  C1142    1.0000 0.50000  0.35250  0.64750  Biso   1.000  C
  C1143    1.0000 0.75000  0.10250  0.64750  Biso   1.000  C
  C1144    1.0000 0.75000  0.35250  0.89750  Biso   1.000  C
  C1145    1.0000 0.50000  0.39750  0.89750  Biso   1.000  C
  C1146    1.0000 0.50000  0.14750  0.64750  Biso   1.000  C
  C1147    1.0000 0.75000  0.39750  0.64750  Biso   1.000  C
  C1148    1.0000 0.75000  0.14750  0.89750  Biso   1.000  C
  C1149    1.0000 0.50000  0.39750  0.60250  Biso   1.000  C
  C1150    1.0000 0.50000  0.14750  0.85250  Biso   1.000  C
  C1151    1.0000 0.75000  0.39750  0.85250  Biso   1.000  C
  C1152    1.0000 0.75000  0.14750  0.60250  Biso   1.000  C
  Zr145    1.0000 0.55994  0.50000  0.00000  Biso   1.000  Zr
  Zr146    1.0000 0.55994  0.75000  0.25000  Biso   1.000  Zr
  Zr147    1.0000 0.80994  0.50000  0.25000  Biso   1.000  Zr
  Zr148    1.0000 0.80994  0.75000  0.00000  Biso   1.000  Zr
  Zr149    1.0000 0.94005  0.50000  0.00000  Biso   1.000  Zr
  Zr150    1.0000 0.94005  0.75000  0.25000  Biso   1.000  Zr
  Zr151    1.0000 0.69005  0.50000  0.25000  Biso   1.000  Zr
  Zr152    1.0000 0.69005  0.75000  0.00000  Biso   1.000  Zr
  Zr153    1.0000 0.50000  0.55994  0.00000  Biso   1.000  Zr
  Zr154    1.0000 0.50000  0.80994  0.25000  Biso   1.000  Zr
  Zr155    1.0000 0.75000  0.55994  0.25000  Biso   1.000  Zr
  Zr156    1.0000 0.75000  0.80994  0.00000  Biso   1.000  Zr
  Zr157    1.0000 0.50000  0.94005  0.00000  Biso   1.000  Zr
  Zr158    1.0000 0.50000  0.69005  0.25000  Biso   1.000  Zr
  Zr159    1.0000 0.75000  0.94005  0.25000  Biso   1.000  Zr
  Zr160    1.0000 0.75000  0.69005  0.00000  Biso   1.000  Zr
  Zr161    1.0000 0.50000  0.50000  0.05994  Biso   1.000  Zr
  Zr162    1.0000 0.50000  0.75000  0.30995  Biso   1.000  Zr
  Zr163    1.0000 0.75000  0.50000  0.30995  Biso   1.000  Zr
  Zr164    1.0000 0.75000  0.75000  0.05994  Biso   1.000  Zr
  Zr165    1.0000 0.50000  0.50000  0.44005  Biso   1.000  Zr
  Zr166    1.0000 0.50000  0.75000  0.19006  Biso   1.000  Zr
  Zr167    1.0000 0.75000  0.50000  0.19006  Biso   1.000  Zr
  Zr168    1.0000 0.75000  0.75000  0.44005  Biso   1.000  Zr
  O721     1.0000 0.58523  0.50000  0.04765  Biso   1.000  O
  C1153    1.0000 0.63375  0.50000  0.09220  Biso   1.000  C
  H577     1.0000 0.63936  0.50000  0.06524  Biso   1.000  H
  O722     1.0000 0.58523  0.75000  0.29765  Biso   1.000  O
  C1154    1.0000 0.63375  0.75000  0.34220  Biso   1.000  C
  H578     1.0000 0.63936  0.75000  0.31524  Biso   1.000  H
  O723     1.0000 0.83524  0.50000  0.29765  Biso   1.000  O
  C1155    1.0000 0.88375  0.50000  0.34220  Biso   1.000  C
  H579     1.0000 0.88936  0.50000  0.31524  Biso   1.000  H
  O724     1.0000 0.83524  0.75000  0.04765  Biso   1.000  O
  C1156    1.0000 0.88375  0.75000  0.09220  Biso   1.000  C
  H580     1.0000 0.88936  0.75000  0.06524  Biso   1.000  H
  O725     1.0000 0.91477  0.50000  0.04765  Biso   1.000  O
  C1157    1.0000 0.86625  0.50000  0.09220  Biso   1.000  C
  H581     1.0000 0.86064  0.50000  0.06524  Biso   1.000  H
  O726     1.0000 0.91477  0.75000  0.29765  Biso   1.000  O
  C1158    1.0000 0.86625  0.75000  0.34220  Biso   1.000  C
  H582     1.0000 0.86064  0.75000  0.31524  Biso   1.000  H
  O727     1.0000 0.66476  0.50000  0.29765  Biso   1.000  O
  C1159    1.0000 0.61625  0.50000  0.34220  Biso   1.000  C
  H583     1.0000 0.61064  0.50000  0.31524  Biso   1.000  H
  O728     1.0000 0.66476  0.75000  0.04765  Biso   1.000  O
  C1160    1.0000 0.61625  0.75000  0.09220  Biso   1.000  C
  H584     1.0000 0.61064  0.75000  0.06524  Biso   1.000  H
  O729     1.0000 0.91477  0.50000  0.45235  Biso   1.000  O
  C1161    1.0000 0.86625  0.50000  0.40780  Biso   1.000  C
  H585     1.0000 0.86064  0.50000  0.43476  Biso   1.000  H
  O730     1.0000 0.91477  0.75000  0.20235  Biso   1.000  O
  C1162    1.0000 0.86625  0.75000  0.15780  Biso   1.000  C
  H586     1.0000 0.86064  0.75000  0.18476  Biso   1.000  H
  O731     1.0000 0.66476  0.50000  0.20235  Biso   1.000  O
  C1163    1.0000 0.61625  0.50000  0.15780  Biso   1.000  C
  H587     1.0000 0.61064  0.50000  0.18476  Biso   1.000  H
  O732     1.0000 0.66476  0.75000  0.45235  Biso   1.000  O
  C1164    1.0000 0.61625  0.75000  0.40780  Biso   1.000  C
  H588     1.0000 0.61064  0.75000  0.43476  Biso   1.000  H
  O733     1.0000 0.58523  0.50000  0.45235  Biso   1.000  O
  C1165    1.0000 0.63375  0.50000  0.40780  Biso   1.000  C
  H589     1.0000 0.63936  0.50000  0.43476  Biso   1.000  H
  O734     1.0000 0.58523  0.75000  0.20235  Biso   1.000  O
  C1166    1.0000 0.63375  0.75000  0.15780  Biso   1.000  C
  H590     1.0000 0.63936  0.75000  0.18476  Biso   1.000  H
  O735     1.0000 0.83524  0.50000  0.20235  Biso   1.000  O
  C1167    1.0000 0.88375  0.50000  0.15780  Biso   1.000  C
  H591     1.0000 0.88936  0.50000  0.18476  Biso   1.000  H
  O736     1.0000 0.83524  0.75000  0.45235  Biso   1.000  O
  C1168    1.0000 0.88375  0.75000  0.40780  Biso   1.000  C
  H592     1.0000 0.88936  0.75000  0.43476  Biso   1.000  H
  O737     1.0000 0.54765  0.58523  0.00000  Biso   1.000  O
  C1169    1.0000 0.59220  0.63375  0.00000  Biso   1.000  C
  H593     1.0000 0.56524  0.63936  0.00000  Biso   1.000  H
  O738     1.0000 0.54765  0.83524  0.25000  Biso   1.000  O
  C1170    1.0000 0.59220  0.88375  0.25000  Biso   1.000  C
  H594     1.0000 0.56524  0.88936  0.25000  Biso   1.000  H
  O739     1.0000 0.79765  0.58523  0.25000  Biso   1.000  O
  C1171    1.0000 0.84220  0.63375  0.25000  Biso   1.000  C
  H595     1.0000 0.81524  0.63936  0.25000  Biso   1.000  H
  O740     1.0000 0.79765  0.83524  0.00000  Biso   1.000  O
  C1172    1.0000 0.84220  0.88375  0.00000  Biso   1.000  C
  H596     1.0000 0.81524  0.88936  0.00000  Biso   1.000  H
  O741     1.0000 0.54765  0.91477  0.00000  Biso   1.000  O
  C1173    1.0000 0.59220  0.86625  0.00000  Biso   1.000  C
  H597     1.0000 0.56524  0.86064  0.00000  Biso   1.000  H
  O742     1.0000 0.54765  0.66476  0.25000  Biso   1.000  O
  C1174    1.0000 0.59220  0.61625  0.25000  Biso   1.000  C
  H598     1.0000 0.56524  0.61064  0.25000  Biso   1.000  H
  O743     1.0000 0.79765  0.91477  0.25000  Biso   1.000  O
  C1175    1.0000 0.84220  0.86625  0.25000  Biso   1.000  C
  H599     1.0000 0.81524  0.86064  0.25000  Biso   1.000  H
  O744     1.0000 0.79765  0.66476  0.00000  Biso   1.000  O
  C1176    1.0000 0.84220  0.61625  0.00000  Biso   1.000  C
  H600     1.0000 0.81524  0.61064  0.00000  Biso   1.000  H
  O745     1.0000 0.95235  0.91477  0.00000  Biso   1.000  O
  C1177    1.0000 0.90780  0.86625  0.00000  Biso   1.000  C
  H601     1.0000 0.93476  0.86064  0.00000  Biso   1.000  H
  O746     1.0000 0.95235  0.66476  0.25000  Biso   1.000  O
  C1178    1.0000 0.90780  0.61625  0.25000  Biso   1.000  C
  H602     1.0000 0.93476  0.61064  0.25000  Biso   1.000  H
  O747     1.0000 0.70235  0.91477  0.25000  Biso   1.000  O
  C1179    1.0000 0.65780  0.86625  0.25000  Biso   1.000  C
  H603     1.0000 0.68476  0.86064  0.25000  Biso   1.000  H
  O748     1.0000 0.70235  0.66476  0.00000  Biso   1.000  O
  C1180    1.0000 0.65780  0.61625  0.00000  Biso   1.000  C
  H604     1.0000 0.68476  0.61064  0.00000  Biso   1.000  H
  O749     1.0000 0.95235  0.58523  0.00000  Biso   1.000  O
  C1181    1.0000 0.90780  0.63375  0.00000  Biso   1.000  C
  H605     1.0000 0.93476  0.63936  0.00000  Biso   1.000  H
  O750     1.0000 0.95235  0.83524  0.25000  Biso   1.000  O
  C1182    1.0000 0.90780  0.88375  0.25000  Biso   1.000  C
  H606     1.0000 0.93476  0.88936  0.25000  Biso   1.000  H
  O751     1.0000 0.70235  0.58523  0.25000  Biso   1.000  O
  C1183    1.0000 0.65780  0.63375  0.25000  Biso   1.000  C
  H607     1.0000 0.68476  0.63936  0.25000  Biso   1.000  H
  O752     1.0000 0.70235  0.83524  0.00000  Biso   1.000  O
  C1184    1.0000 0.65780  0.88375  0.00000  Biso   1.000  C
  H608     1.0000 0.68476  0.88936  0.00000  Biso   1.000  H
  O753     1.0000 0.50000  0.54765  0.08524  Biso   1.000  O
  C1185    1.0000 0.50000  0.59220  0.13375  Biso   1.000  C
  H609     1.0000 0.50000  0.56524  0.13936  Biso   1.000  H
  O754     1.0000 0.50000  0.79765  0.33524  Biso   1.000  O
  C1186    1.0000 0.50000  0.84220  0.38375  Biso   1.000  C
  H610     1.0000 0.50000  0.81524  0.38936  Biso   1.000  H
  O755     1.0000 0.75000  0.54765  0.33524  Biso   1.000  O
  C1187    1.0000 0.75000  0.59220  0.38375  Biso   1.000  C
  H611     1.0000 0.75000  0.56524  0.38936  Biso   1.000  H
  O756     1.0000 0.75000  0.79765  0.08524  Biso   1.000  O
  C1188    1.0000 0.75000  0.84220  0.13375  Biso   1.000  C
  H612     1.0000 0.75000  0.81524  0.13936  Biso   1.000  H
  O757     1.0000 0.50000  0.54765  0.41476  Biso   1.000  O
  C1189    1.0000 0.50000  0.59220  0.36625  Biso   1.000  C
  H613     1.0000 0.50000  0.56524  0.36064  Biso   1.000  H
  O758     1.0000 0.50000  0.79765  0.16476  Biso   1.000  O
  C1190    1.0000 0.50000  0.84220  0.11625  Biso   1.000  C
  H614     1.0000 0.50000  0.81524  0.11064  Biso   1.000  H
  O759     1.0000 0.75000  0.54765  0.16476  Biso   1.000  O
  C1191    1.0000 0.75000  0.59220  0.11625  Biso   1.000  C
  H615     1.0000 0.75000  0.56524  0.11064  Biso   1.000  H
  O760     1.0000 0.75000  0.79765  0.41476  Biso   1.000  O
  C1192    1.0000 0.75000  0.84220  0.36625  Biso   1.000  C
  H616     1.0000 0.75000  0.81524  0.36064  Biso   1.000  H
  O761     1.0000 0.50000  0.95235  0.41476  Biso   1.000  O
  C1193    1.0000 0.50000  0.90780  0.36625  Biso   1.000  C
  H617     1.0000 0.50000  0.93476  0.36064  Biso   1.000  H
  O762     1.0000 0.50000  0.70235  0.16476  Biso   1.000  O
  C1194    1.0000 0.50000  0.65780  0.11625  Biso   1.000  C
  H618     1.0000 0.50000  0.68476  0.11064  Biso   1.000  H
  O763     1.0000 0.75000  0.95235  0.16476  Biso   1.000  O
  C1195    1.0000 0.75000  0.90780  0.11625  Biso   1.000  C
  H619     1.0000 0.75000  0.93476  0.11064  Biso   1.000  H
  O764     1.0000 0.75000  0.70235  0.41476  Biso   1.000  O
  C1196    1.0000 0.75000  0.65780  0.36625  Biso   1.000  C
  H620     1.0000 0.75000  0.68476  0.36064  Biso   1.000  H
  O765     1.0000 0.50000  0.95235  0.08524  Biso   1.000  O
  C1197    1.0000 0.50000  0.90780  0.13375  Biso   1.000  C
  H621     1.0000 0.50000  0.93476  0.13936  Biso   1.000  H
  O766     1.0000 0.50000  0.70235  0.33524  Biso   1.000  O
  C1198    1.0000 0.50000  0.65780  0.38375  Biso   1.000  C
  H622     1.0000 0.50000  0.68476  0.38936  Biso   1.000  H
  O767     1.0000 0.75000  0.95235  0.33524  Biso   1.000  O
  C1199    1.0000 0.75000  0.90780  0.38375  Biso   1.000  C
  H623     1.0000 0.75000  0.93476  0.38936  Biso   1.000  H
  O768     1.0000 0.75000  0.70235  0.08524  Biso   1.000  O
  C1200    1.0000 0.75000  0.65780  0.13375  Biso   1.000  C
  H624     1.0000 0.75000  0.68476  0.13936  Biso   1.000  H
  O769     1.0000 0.50000  0.58523  0.45235  Biso   1.000  O
  C1201    1.0000 0.50000  0.63375  0.40780  Biso   1.000  C
  H625     1.0000 0.50000  0.63936  0.43476  Biso   1.000  H
  O770     1.0000 0.50000  0.83524  0.20235  Biso   1.000  O
  C1202    1.0000 0.50000  0.88375  0.15780  Biso   1.000  C
  H626     1.0000 0.50000  0.88936  0.18476  Biso   1.000  H
  O771     1.0000 0.75000  0.58523  0.20235  Biso   1.000  O
  C1203    1.0000 0.75000  0.63375  0.15780  Biso   1.000  C
  H627     1.0000 0.75000  0.63936  0.18476  Biso   1.000  H
  O772     1.0000 0.75000  0.83524  0.45235  Biso   1.000  O
  C1204    1.0000 0.75000  0.88375  0.40780  Biso   1.000  C
  H628     1.0000 0.75000  0.88936  0.43476  Biso   1.000  H
  O773     1.0000 0.50000  0.91477  0.45235  Biso   1.000  O
  C1205    1.0000 0.50000  0.86625  0.40780  Biso   1.000  C
  H629     1.0000 0.50000  0.86064  0.43476  Biso   1.000  H
  O774     1.0000 0.50000  0.66476  0.20235  Biso   1.000  O
  C1206    1.0000 0.50000  0.61625  0.15780  Biso   1.000  C
  H630     1.0000 0.50000  0.61064  0.18476  Biso   1.000  H
  O775     1.0000 0.75000  0.91477  0.20235  Biso   1.000  O
  C1207    1.0000 0.75000  0.86625  0.15780  Biso   1.000  C
  H631     1.0000 0.75000  0.86064  0.18476  Biso   1.000  H
  O776     1.0000 0.75000  0.66476  0.45235  Biso   1.000  O
  C1208    1.0000 0.75000  0.61625  0.40780  Biso   1.000  C
  H632     1.0000 0.75000  0.61064  0.43476  Biso   1.000  H
  O777     1.0000 0.50000  0.91477  0.04765  Biso   1.000  O
  C1209    1.0000 0.50000  0.86625  0.09220  Biso   1.000  C
  H633     1.0000 0.50000  0.86064  0.06524  Biso   1.000  H
  O778     1.0000 0.50000  0.66476  0.29765  Biso   1.000  O
  C1210    1.0000 0.50000  0.61625  0.34220  Biso   1.000  C
  H634     1.0000 0.50000  0.61064  0.31524  Biso   1.000  H
  O779     1.0000 0.75000  0.91477  0.29765  Biso   1.000  O
  C1211    1.0000 0.75000  0.86625  0.34220  Biso   1.000  C
  H635     1.0000 0.75000  0.86064  0.31524  Biso   1.000  H
  O780     1.0000 0.75000  0.66476  0.04765  Biso   1.000  O
  C1212    1.0000 0.75000  0.61625  0.09220  Biso   1.000  C
  H636     1.0000 0.75000  0.61064  0.06524  Biso   1.000  H
  O781     1.0000 0.50000  0.58523  0.04765  Biso   1.000  O
  C1213    1.0000 0.50000  0.63375  0.09220  Biso   1.000  C
  H637     1.0000 0.50000  0.63936  0.06524  Biso   1.000  H
  O782     1.0000 0.50000  0.83524  0.29765  Biso   1.000  O
  C1214    1.0000 0.50000  0.88375  0.34220  Biso   1.000  C
  H638     1.0000 0.50000  0.88936  0.31524  Biso   1.000  H
  O783     1.0000 0.75000  0.58523  0.29765  Biso   1.000  O
  C1215    1.0000 0.75000  0.63375  0.34220  Biso   1.000  C
  H639     1.0000 0.75000  0.63936  0.31524  Biso   1.000  H
  O784     1.0000 0.75000  0.83524  0.04765  Biso   1.000  O
  C1216    1.0000 0.75000  0.88375  0.09220  Biso   1.000  C
  H640     1.0000 0.75000  0.88936  0.06524  Biso   1.000  H
  O785     1.0000 0.58523  0.54765  0.00000  Biso   1.000  O
  C1217    1.0000 0.63375  0.59220  0.00000  Biso   1.000  C
  H641     1.0000 0.63936  0.56524  0.00000  Biso   1.000  H
  O786     1.0000 0.58523  0.79765  0.25000  Biso   1.000  O
  C1218    1.0000 0.63375  0.84220  0.25000  Biso   1.000  C
  H642     1.0000 0.63936  0.81524  0.25000  Biso   1.000  H
  O787     1.0000 0.83524  0.54765  0.25000  Biso   1.000  O
  C1219    1.0000 0.88375  0.59220  0.25000  Biso   1.000  C
  H643     1.0000 0.88936  0.56524  0.25000  Biso   1.000  H
  O788     1.0000 0.83524  0.79765  0.00000  Biso   1.000  O
  C1220    1.0000 0.88375  0.84220  0.00000  Biso   1.000  C
  H644     1.0000 0.88936  0.81524  0.00000  Biso   1.000  H
  O789     1.0000 0.91477  0.54765  0.00000  Biso   1.000  O
  C1221    1.0000 0.86625  0.59220  0.00000  Biso   1.000  C
  H645     1.0000 0.86064  0.56524  0.00000  Biso   1.000  H
  O790     1.0000 0.91477  0.79765  0.25000  Biso   1.000  O
  C1222    1.0000 0.86625  0.84220  0.25000  Biso   1.000  C
  H646     1.0000 0.86064  0.81524  0.25000  Biso   1.000  H
  O791     1.0000 0.66476  0.54765  0.25000  Biso   1.000  O
  C1223    1.0000 0.61625  0.59220  0.25000  Biso   1.000  C
  H647     1.0000 0.61064  0.56524  0.25000  Biso   1.000  H
  O792     1.0000 0.66476  0.79765  0.00000  Biso   1.000  O
  C1224    1.0000 0.61625  0.84220  0.00000  Biso   1.000  C
  H648     1.0000 0.61064  0.81524  0.00000  Biso   1.000  H
  O793     1.0000 0.91477  0.95235  0.00000  Biso   1.000  O
  C1225    1.0000 0.86625  0.90780  0.00000  Biso   1.000  C
  H649     1.0000 0.86064  0.93476  0.00000  Biso   1.000  H
  O794     1.0000 0.91477  0.70235  0.25000  Biso   1.000  O
  C1226    1.0000 0.86625  0.65780  0.25000  Biso   1.000  C
  H650     1.0000 0.86064  0.68476  0.25000  Biso   1.000  H
  O795     1.0000 0.66476  0.95235  0.25000  Biso   1.000  O
  C1227    1.0000 0.61625  0.90780  0.25000  Biso   1.000  C
  H651     1.0000 0.61064  0.93476  0.25000  Biso   1.000  H
  O796     1.0000 0.66476  0.70235  0.00000  Biso   1.000  O
  C1228    1.0000 0.61625  0.65780  0.00000  Biso   1.000  C
  H652     1.0000 0.61064  0.68476  0.00000  Biso   1.000  H
  O797     1.0000 0.58523  0.95235  0.00000  Biso   1.000  O
  C1229    1.0000 0.63375  0.90780  0.00000  Biso   1.000  C
  H653     1.0000 0.63936  0.93476  0.00000  Biso   1.000  H
  O798     1.0000 0.58523  0.70235  0.25000  Biso   1.000  O
  C1230    1.0000 0.63375  0.65780  0.25000  Biso   1.000  C
  H654     1.0000 0.63936  0.68476  0.25000  Biso   1.000  H
  O799     1.0000 0.83524  0.95235  0.25000  Biso   1.000  O
  C1231    1.0000 0.88375  0.90780  0.25000  Biso   1.000  C
  H655     1.0000 0.88936  0.93476  0.25000  Biso   1.000  H
  O800     1.0000 0.83524  0.70235  0.00000  Biso   1.000  O
  C1232    1.0000 0.88375  0.65780  0.00000  Biso   1.000  C
  H656     1.0000 0.88936  0.68476  0.00000  Biso   1.000  H
  O801     1.0000 0.54765  0.50000  0.41476  Biso   1.000  O
  C1233    1.0000 0.59220  0.50000  0.36625  Biso   1.000  C
  H657     1.0000 0.56524  0.50000  0.36064  Biso   1.000  H
  O802     1.0000 0.54765  0.75000  0.16476  Biso   1.000  O
  C1234    1.0000 0.59220  0.75000  0.11625  Biso   1.000  C
  H658     1.0000 0.56524  0.75000  0.11064  Biso   1.000  H
  O803     1.0000 0.79765  0.50000  0.16476  Biso   1.000  O
  C1235    1.0000 0.84220  0.50000  0.11625  Biso   1.000  C
  H659     1.0000 0.81524  0.50000  0.11064  Biso   1.000  H
  O804     1.0000 0.79765  0.75000  0.41476  Biso   1.000  O
  C1236    1.0000 0.84220  0.75000  0.36625  Biso   1.000  C
  H660     1.0000 0.81524  0.75000  0.36064  Biso   1.000  H
  O805     1.0000 0.54765  0.50000  0.08524  Biso   1.000  O
  C1237    1.0000 0.59220  0.50000  0.13375  Biso   1.000  C
  H661     1.0000 0.56524  0.50000  0.13936  Biso   1.000  H
  O806     1.0000 0.54765  0.75000  0.33524  Biso   1.000  O
  C1238    1.0000 0.59220  0.75000  0.38375  Biso   1.000  C
  H662     1.0000 0.56524  0.75000  0.38936  Biso   1.000  H
  O807     1.0000 0.79765  0.50000  0.33524  Biso   1.000  O
  C1239    1.0000 0.84220  0.50000  0.38375  Biso   1.000  C
  H663     1.0000 0.81524  0.50000  0.38936  Biso   1.000  H
  O808     1.0000 0.79765  0.75000  0.08524  Biso   1.000  O
  C1240    1.0000 0.84220  0.75000  0.13375  Biso   1.000  C
  H664     1.0000 0.81524  0.75000  0.13936  Biso   1.000  H
  O809     1.0000 0.95235  0.50000  0.08524  Biso   1.000  O
  C1241    1.0000 0.90780  0.50000  0.13375  Biso   1.000  C
  H665     1.0000 0.93476  0.50000  0.13936  Biso   1.000  H
  O810     1.0000 0.95235  0.75000  0.33524  Biso   1.000  O
  C1242    1.0000 0.90780  0.75000  0.38375  Biso   1.000  C
  H666     1.0000 0.93476  0.75000  0.38936  Biso   1.000  H
  O811     1.0000 0.70235  0.50000  0.33524  Biso   1.000  O
  C1243    1.0000 0.65780  0.50000  0.38375  Biso   1.000  C
  H667     1.0000 0.68476  0.50000  0.38936  Biso   1.000  H
  O812     1.0000 0.70235  0.75000  0.08524  Biso   1.000  O
  C1244    1.0000 0.65780  0.75000  0.13375  Biso   1.000  C
  H668     1.0000 0.68476  0.75000  0.13936  Biso   1.000  H
  O813     1.0000 0.95235  0.50000  0.41476  Biso   1.000  O
  C1245    1.0000 0.90780  0.50000  0.36625  Biso   1.000  C
  H669     1.0000 0.93476  0.50000  0.36064  Biso   1.000  H
  O814     1.0000 0.95235  0.75000  0.16476  Biso   1.000  O
  C1246    1.0000 0.90780  0.75000  0.11625  Biso   1.000  C
  H670     1.0000 0.93476  0.75000  0.11064  Biso   1.000  H
  O815     1.0000 0.70235  0.50000  0.16476  Biso   1.000  O
  C1247    1.0000 0.65780  0.50000  0.11625  Biso   1.000  C
  H671     1.0000 0.68476  0.50000  0.11064  Biso   1.000  H
  O816     1.0000 0.70235  0.75000  0.41476  Biso   1.000  O
  C1248    1.0000 0.65780  0.75000  0.36625  Biso   1.000  C
  H672     1.0000 0.68476  0.75000  0.36064  Biso   1.000  H
  O817     1.0000 0.52805  0.72195  0.22195  Biso   1.000  O
  O818     1.0000 0.77805  0.97195  0.22195  Biso   1.000  O
  O819     1.0000 0.77805  0.72195  0.47195  Biso   1.000  O
  O820     1.0000 0.72195  0.52805  0.22195  Biso   1.000  O
  O821     1.0000 0.72195  0.77805  0.47195  Biso   1.000  O
  O822     1.0000 0.97195  0.97195  0.02805  Biso   1.000  O
  O823     1.0000 0.97195  0.72195  0.27805  Biso   1.000  O
  O824     1.0000 0.52805  0.52805  0.02805  Biso   1.000  O
  O825     1.0000 0.77805  0.77805  0.02805  Biso   1.000  O
  O826     1.0000 0.97195  0.52805  0.02805  Biso   1.000  O
  O827     1.0000 0.97195  0.77805  0.27805  Biso   1.000  O
  O828     1.0000 0.72195  0.52805  0.27805  Biso   1.000  O
  O829     1.0000 0.72195  0.77805  0.02805  Biso   1.000  O
  O830     1.0000 0.52805  0.97195  0.02805  Biso   1.000  O
  O831     1.0000 0.52805  0.72195  0.27805  Biso   1.000  O
  O832     1.0000 0.77805  0.97195  0.27805  Biso   1.000  O
  O833     1.0000 0.77805  0.72195  0.02805  Biso   1.000  O
  O834     1.0000 0.97195  0.97195  0.47195  Biso   1.000  O
  O835     1.0000 0.97195  0.72195  0.22195  Biso   1.000  O
  O836     1.0000 0.72195  0.97195  0.22195  Biso   1.000  O
  O837     1.0000 0.72195  0.72195  0.47195  Biso   1.000  O
  O838     1.0000 0.52805  0.52805  0.47195  Biso   1.000  O
  O839     1.0000 0.52805  0.77805  0.22195  Biso   1.000  O
  O840     1.0000 0.77805  0.52805  0.22195  Biso   1.000  O
  C1249    1.0000 0.57680  0.50000  0.42320  Biso   1.000  C
  C1250    1.0000 0.57680  0.75000  0.17320  Biso   1.000  C
  C1251    1.0000 0.82680  0.50000  0.17320  Biso   1.000  C
  C1252    1.0000 0.82680  0.75000  0.42320  Biso   1.000  C
  C1253    1.0000 0.92320  0.50000  0.42320  Biso   1.000  C
  C1254    1.0000 0.92320  0.75000  0.17320  Biso   1.000  C
  C1255    1.0000 0.67320  0.50000  0.17320  Biso   1.000  C
  C1256    1.0000 0.67320  0.75000  0.42320  Biso   1.000  C
  C1257    1.0000 0.92320  0.50000  0.07680  Biso   1.000  C
  C1258    1.0000 0.92320  0.75000  0.32680  Biso   1.000  C
  C1259    1.0000 0.67320  0.50000  0.32680  Biso   1.000  C
  C1260    1.0000 0.67320  0.75000  0.07680  Biso   1.000  C
  C1261    1.0000 0.57680  0.50000  0.07680  Biso   1.000  C
  C1262    1.0000 0.57680  0.75000  0.32680  Biso   1.000  C
  C1263    1.0000 0.82680  0.50000  0.32680  Biso   1.000  C
  C1264    1.0000 0.82680  0.75000  0.07680  Biso   1.000  C
  C1265    1.0000 0.92320  0.57680  0.00000  Biso   1.000  C
  C1266    1.0000 0.92320  0.82680  0.25000  Biso   1.000  C
  C1267    1.0000 0.67320  0.57680  0.25000  Biso   1.000  C
  C1268    1.0000 0.67320  0.82680  0.00000  Biso   1.000  C
  C1269    1.0000 0.92320  0.92320  0.00000  Biso   1.000  C
  C1270    1.0000 0.92320  0.67320  0.25000  Biso   1.000  C
  C1271    1.0000 0.67320  0.92320  0.25000  Biso   1.000  C
  C1272    1.0000 0.67320  0.67320  0.00000  Biso   1.000  C
  C1273    1.0000 0.57680  0.92320  0.00000  Biso   1.000  C
  C1274    1.0000 0.57680  0.67320  0.25000  Biso   1.000  C
  C1275    1.0000 0.82680  0.92320  0.25000  Biso   1.000  C
  C1276    1.0000 0.82680  0.67320  0.00000  Biso   1.000  C
  C1277    1.0000 0.57680  0.57680  0.00000  Biso   1.000  C
  C1278    1.0000 0.57680  0.82680  0.25000  Biso   1.000  C
  C1279    1.0000 0.82680  0.57680  0.25000  Biso   1.000  C
  C1280    1.0000 0.82680  0.82680  0.00000  Biso   1.000  C
  C1281    1.0000 0.50000  0.92320  0.07680  Biso   1.000  C
  C1282    1.0000 0.50000  0.67320  0.32680  Biso   1.000  C
  C1283    1.0000 0.75000  0.92320  0.32680  Biso   1.000  C
  C1284    1.0000 0.75000  0.67320  0.07680  Biso   1.000  C
  C1285    1.0000 0.50000  0.92320  0.42320  Biso   1.000  C
  C1286    1.0000 0.50000  0.67320  0.17320  Biso   1.000  C
  C1287    1.0000 0.75000  0.92320  0.17320  Biso   1.000  C
  C1288    1.0000 0.75000  0.67320  0.42320  Biso   1.000  C
  C1289    1.0000 0.50000  0.57680  0.42320  Biso   1.000  C
  C1290    1.0000 0.50000  0.82680  0.17320  Biso   1.000  C
  C1291    1.0000 0.75000  0.57680  0.17320  Biso   1.000  C
  C1292    1.0000 0.75000  0.82680  0.42320  Biso   1.000  C
  C1293    1.0000 0.50000  0.57680  0.07680  Biso   1.000  C
  C1294    1.0000 0.50000  0.82680  0.32680  Biso   1.000  C
  C1295    1.0000 0.75000  0.57680  0.32680  Biso   1.000  C
  C1296    1.0000 0.75000  0.82680  0.07680  Biso   1.000  C
  C1297    1.0000 0.60250  0.50000  0.10250  Biso   1.000  C
  C1298    1.0000 0.60250  0.75000  0.35250  Biso   1.000  C
  C1299    1.0000 0.85250  0.50000  0.35250  Biso   1.000  C
  C1300    1.0000 0.85250  0.75000  0.10250  Biso   1.000  C
  C1301    1.0000 0.89750  0.50000  0.10250  Biso   1.000  C
  C1302    1.0000 0.89750  0.75000  0.35250  Biso   1.000  C
  C1303    1.0000 0.64750  0.50000  0.35250  Biso   1.000  C
  C1304    1.0000 0.64750  0.75000  0.10250  Biso   1.000  C
  C1305    1.0000 0.89750  0.50000  0.39750  Biso   1.000  C
  C1306    1.0000 0.89750  0.75000  0.14750  Biso   1.000  C
  C1307    1.0000 0.64750  0.50000  0.14750  Biso   1.000  C
  C1308    1.0000 0.64750  0.75000  0.39750  Biso   1.000  C
  C1309    1.0000 0.60250  0.50000  0.39750  Biso   1.000  C
  C1310    1.0000 0.60250  0.75000  0.14750  Biso   1.000  C
  C1311    1.0000 0.85250  0.50000  0.14750  Biso   1.000  C
  C1312    1.0000 0.85250  0.75000  0.39750  Biso   1.000  C
  C1313    1.0000 0.60250  0.60250  0.00000  Biso   1.000  C
  C1314    1.0000 0.60250  0.85250  0.25000  Biso   1.000  C
  C1315    1.0000 0.85250  0.60250  0.25000  Biso   1.000  C
  C1316    1.0000 0.85250  0.85250  0.00000  Biso   1.000  C
  C1317    1.0000 0.60250  0.89750  0.00000  Biso   1.000  C
  C1318    1.0000 0.60250  0.64750  0.25000  Biso   1.000  C
  C1319    1.0000 0.85250  0.89750  0.25000  Biso   1.000  C
  C1320    1.0000 0.85250  0.64750  0.00000  Biso   1.000  C
  C1321    1.0000 0.89750  0.89750  0.00000  Biso   1.000  C
  C1322    1.0000 0.89750  0.64750  0.25000  Biso   1.000  C
  C1323    1.0000 0.64750  0.89750  0.25000  Biso   1.000  C
  C1324    1.0000 0.64750  0.64750  0.00000  Biso   1.000  C
  C1325    1.0000 0.89750  0.60250  0.00000  Biso   1.000  C
  C1326    1.0000 0.89750  0.85250  0.25000  Biso   1.000  C
  C1327    1.0000 0.64750  0.60250  0.25000  Biso   1.000  C
  C1328    1.0000 0.64750  0.85250  0.00000  Biso   1.000  C
  C1329    1.0000 0.50000  0.60250  0.10250  Biso   1.000  C
  C1330    1.0000 0.50000  0.85250  0.35250  Biso   1.000  C
  C1331    1.0000 0.75000  0.60250  0.35250  Biso   1.000  C
  C1332    1.0000 0.75000  0.85250  0.10250  Biso   1.000  C
  C1333    1.0000 0.50000  0.60250  0.39750  Biso   1.000  C
  C1334    1.0000 0.50000  0.85250  0.14750  Biso   1.000  C
  C1335    1.0000 0.75000  0.60250  0.14750  Biso   1.000  C
  C1336    1.0000 0.75000  0.85250  0.39750  Biso   1.000  C
  C1337    1.0000 0.50000  0.89750  0.39750  Biso   1.000  C
  C1338    1.0000 0.50000  0.64750  0.14750  Biso   1.000  C
  C1339    1.0000 0.75000  0.89750  0.14750  Biso   1.000  C
  C1340    1.0000 0.75000  0.64750  0.39750  Biso   1.000  C
  C1341    1.0000 0.50000  0.89750  0.10250  Biso   1.000  C
  C1342    1.0000 0.50000  0.64750  0.35250  Biso   1.000  C
  C1343    1.0000 0.75000  0.89750  0.35250  Biso   1.000  C
  C1344    1.0000 0.75000  0.64750  0.10250  Biso   1.000  C
  Zr169    1.0000 0.55994  0.50000  0.50000  Biso   1.000  Zr
  Zr170    1.0000 0.55994  0.75000  0.75000  Biso   1.000  Zr
  Zr171    1.0000 0.80994  0.50000  0.75000  Biso   1.000  Zr
  Zr172    1.0000 0.80994  0.75000  0.50000  Biso   1.000  Zr
  Zr173    1.0000 0.94005  0.50000  0.50000  Biso   1.000  Zr
  Zr174    1.0000 0.94005  0.75000  0.75000  Biso   1.000  Zr
  Zr175    1.0000 0.69005  0.50000  0.75000  Biso   1.000  Zr
  Zr176    1.0000 0.69005  0.75000  0.50000  Biso   1.000  Zr
  Zr177    1.0000 0.50000  0.55994  0.50000  Biso   1.000  Zr
  Zr178    1.0000 0.50000  0.80994  0.75000  Biso   1.000  Zr
  Zr179    1.0000 0.75000  0.55994  0.75000  Biso   1.000  Zr
  Zr180    1.0000 0.75000  0.80994  0.50000  Biso   1.000  Zr
  Zr181    1.0000 0.50000  0.94005  0.50000  Biso   1.000  Zr
  Zr182    1.0000 0.50000  0.69005  0.75000  Biso   1.000  Zr
  Zr183    1.0000 0.75000  0.94005  0.75000  Biso   1.000  Zr
  Zr184    1.0000 0.75000  0.69005  0.50000  Biso   1.000  Zr
  Zr185    1.0000 0.50000  0.50000  0.55994  Biso   1.000  Zr
  Zr186    1.0000 0.50000  0.75000  0.80994  Biso   1.000  Zr
  Zr187    1.0000 0.75000  0.50000  0.80994  Biso   1.000  Zr
  Zr188    1.0000 0.75000  0.75000  0.55994  Biso   1.000  Zr
  Zr189    1.0000 0.50000  0.50000  0.94005  Biso   1.000  Zr
  Zr190    1.0000 0.50000  0.75000  0.69005  Biso   1.000  Zr
  Zr191    1.0000 0.75000  0.50000  0.69005  Biso   1.000  Zr
  Zr192    1.0000 0.75000  0.75000  0.94005  Biso   1.000  Zr
  O841     1.0000 0.58523  0.50000  0.54765  Biso   1.000  O
  C1345    1.0000 0.63375  0.50000  0.59220  Biso   1.000  C
  H673     1.0000 0.63936  0.50000  0.56524  Biso   1.000  H
  O842     1.0000 0.58523  0.75000  0.79765  Biso   1.000  O
  C1346    1.0000 0.63375  0.75000  0.84220  Biso   1.000  C
  H674     1.0000 0.63936  0.75000  0.81524  Biso   1.000  H
  O843     1.0000 0.83524  0.50000  0.79765  Biso   1.000  O
  C1347    1.0000 0.88375  0.50000  0.84220  Biso   1.000  C
  H675     1.0000 0.88936  0.50000  0.81524  Biso   1.000  H
  O844     1.0000 0.83524  0.75000  0.54765  Biso   1.000  O
  C1348    1.0000 0.88375  0.75000  0.59220  Biso   1.000  C
  H676     1.0000 0.88936  0.75000  0.56524  Biso   1.000  H
  O845     1.0000 0.91477  0.50000  0.54765  Biso   1.000  O
  C1349    1.0000 0.86625  0.50000  0.59220  Biso   1.000  C
  H677     1.0000 0.86064  0.50000  0.56524  Biso   1.000  H
  O846     1.0000 0.91477  0.75000  0.79765  Biso   1.000  O
  C1350    1.0000 0.86625  0.75000  0.84220  Biso   1.000  C
  H678     1.0000 0.86064  0.75000  0.81524  Biso   1.000  H
  O847     1.0000 0.66476  0.50000  0.79765  Biso   1.000  O
  C1351    1.0000 0.61625  0.50000  0.84220  Biso   1.000  C
  H679     1.0000 0.61064  0.50000  0.81524  Biso   1.000  H
  O848     1.0000 0.66476  0.75000  0.54765  Biso   1.000  O
  C1352    1.0000 0.61625  0.75000  0.59220  Biso   1.000  C
  H680     1.0000 0.61064  0.75000  0.56524  Biso   1.000  H
  O849     1.0000 0.91477  0.50000  0.95235  Biso   1.000  O
  C1353    1.0000 0.86625  0.50000  0.90780  Biso   1.000  C
  H681     1.0000 0.86064  0.50000  0.93476  Biso   1.000  H
  O850     1.0000 0.91477  0.75000  0.70235  Biso   1.000  O
  C1354    1.0000 0.86625  0.75000  0.65780  Biso   1.000  C
  H682     1.0000 0.86064  0.75000  0.68476  Biso   1.000  H
  O851     1.0000 0.66476  0.50000  0.70235  Biso   1.000  O
  C1355    1.0000 0.61625  0.50000  0.65780  Biso   1.000  C
  H683     1.0000 0.61064  0.50000  0.68476  Biso   1.000  H
  O852     1.0000 0.66476  0.75000  0.95235  Biso   1.000  O
  C1356    1.0000 0.61625  0.75000  0.90780  Biso   1.000  C
  H684     1.0000 0.61064  0.75000  0.93476  Biso   1.000  H
  O853     1.0000 0.58523  0.50000  0.95235  Biso   1.000  O
  C1357    1.0000 0.63375  0.50000  0.90780  Biso   1.000  C
  H685     1.0000 0.63936  0.50000  0.93476  Biso   1.000  H
  O854     1.0000 0.58523  0.75000  0.70235  Biso   1.000  O
  C1358    1.0000 0.63375  0.75000  0.65780  Biso   1.000  C
  H686     1.0000 0.63936  0.75000  0.68476  Biso   1.000  H
  O855     1.0000 0.83524  0.50000  0.70235  Biso   1.000  O
  C1359    1.0000 0.88375  0.50000  0.65780  Biso   1.000  C
  H687     1.0000 0.88936  0.50000  0.68476  Biso   1.000  H
  O856     1.0000 0.83524  0.75000  0.95235  Biso   1.000  O
  C1360    1.0000 0.88375  0.75000  0.90780  Biso   1.000  C
  H688     1.0000 0.88936  0.75000  0.93476  Biso   1.000  H
  O857     1.0000 0.54765  0.58523  0.50000  Biso   1.000  O
  C1361    1.0000 0.59220  0.63375  0.50000  Biso   1.000  C
  H689     1.0000 0.56524  0.63936  0.50000  Biso   1.000  H
  O858     1.0000 0.54765  0.83524  0.75000  Biso   1.000  O
  C1362    1.0000 0.59220  0.88375  0.75000  Biso   1.000  C
  H690     1.0000 0.56524  0.88936  0.75000  Biso   1.000  H
  O859     1.0000 0.79765  0.58523  0.75000  Biso   1.000  O
  C1363    1.0000 0.84220  0.63375  0.75000  Biso   1.000  C
  H691     1.0000 0.81524  0.63936  0.75000  Biso   1.000  H
  O860     1.0000 0.79765  0.83524  0.50000  Biso   1.000  O
  C1364    1.0000 0.84220  0.88375  0.50000  Biso   1.000  C
  H692     1.0000 0.81524  0.88936  0.50000  Biso   1.000  H
  O861     1.0000 0.54765  0.91477  0.50000  Biso   1.000  O
  C1365    1.0000 0.59220  0.86625  0.50000  Biso   1.000  C
  H693     1.0000 0.56524  0.86064  0.50000  Biso   1.000  H
  O862     1.0000 0.54765  0.66476  0.75000  Biso   1.000  O
  C1366    1.0000 0.59220  0.61625  0.75000  Biso   1.000  C
  H694     1.0000 0.56524  0.61064  0.75000  Biso   1.000  H
  O863     1.0000 0.79765  0.91477  0.75000  Biso   1.000  O
  C1367    1.0000 0.84220  0.86625  0.75000  Biso   1.000  C
  H695     1.0000 0.81524  0.86064  0.75000  Biso   1.000  H
  O864     1.0000 0.79765  0.66476  0.50000  Biso   1.000  O
  C1368    1.0000 0.84220  0.61625  0.50000  Biso   1.000  C
  H696     1.0000 0.81524  0.61064  0.50000  Biso   1.000  H
  O865     1.0000 0.95235  0.91477  0.50000  Biso   1.000  O
  C1369    1.0000 0.90780  0.86625  0.50000  Biso   1.000  C
  H697     1.0000 0.93476  0.86064  0.50000  Biso   1.000  H
  O866     1.0000 0.95235  0.66476  0.75000  Biso   1.000  O
  C1370    1.0000 0.90780  0.61625  0.75000  Biso   1.000  C
  H698     1.0000 0.93476  0.61064  0.75000  Biso   1.000  H
  O867     1.0000 0.70235  0.91477  0.75000  Biso   1.000  O
  C1371    1.0000 0.65780  0.86625  0.75000  Biso   1.000  C
  H699     1.0000 0.68476  0.86064  0.75000  Biso   1.000  H
  O868     1.0000 0.70235  0.66476  0.50000  Biso   1.000  O
  C1372    1.0000 0.65780  0.61625  0.50000  Biso   1.000  C
  H700     1.0000 0.68476  0.61064  0.50000  Biso   1.000  H
  O869     1.0000 0.95235  0.58523  0.50000  Biso   1.000  O
  C1373    1.0000 0.90780  0.63375  0.50000  Biso   1.000  C
  H701     1.0000 0.93476  0.63936  0.50000  Biso   1.000  H
  O870     1.0000 0.95235  0.83524  0.75000  Biso   1.000  O
  C1374    1.0000 0.90780  0.88375  0.75000  Biso   1.000  C
  H702     1.0000 0.93476  0.88936  0.75000  Biso   1.000  H
  O871     1.0000 0.70235  0.58523  0.75000  Biso   1.000  O
  C1375    1.0000 0.65780  0.63375  0.75000  Biso   1.000  C
  H703     1.0000 0.68476  0.63936  0.75000  Biso   1.000  H
  O872     1.0000 0.70235  0.83524  0.50000  Biso   1.000  O
  C1376    1.0000 0.65780  0.88375  0.50000  Biso   1.000  C
  H704     1.0000 0.68476  0.88936  0.50000  Biso   1.000  H
  O873     1.0000 0.50000  0.54765  0.58523  Biso   1.000  O
  C1377    1.0000 0.50000  0.59220  0.63375  Biso   1.000  C
  H705     1.0000 0.50000  0.56524  0.63936  Biso   1.000  H
  O874     1.0000 0.50000  0.79765  0.83524  Biso   1.000  O
  C1378    1.0000 0.50000  0.84220  0.88375  Biso   1.000  C
  H706     1.0000 0.50000  0.81524  0.88936  Biso   1.000  H
  O875     1.0000 0.75000  0.54765  0.83524  Biso   1.000  O
  C1379    1.0000 0.75000  0.59220  0.88375  Biso   1.000  C
  H707     1.0000 0.75000  0.56524  0.88936  Biso   1.000  H
  O876     1.0000 0.75000  0.79765  0.58523  Biso   1.000  O
  C1380    1.0000 0.75000  0.84220  0.63375  Biso   1.000  C
  H708     1.0000 0.75000  0.81524  0.63936  Biso   1.000  H
  O877     1.0000 0.50000  0.54765  0.91477  Biso   1.000  O
  C1381    1.0000 0.50000  0.59220  0.86625  Biso   1.000  C
  H709     1.0000 0.50000  0.56524  0.86064  Biso   1.000  H
  O878     1.0000 0.50000  0.79765  0.66476  Biso   1.000  O
  C1382    1.0000 0.50000  0.84220  0.61625  Biso   1.000  C
  H710     1.0000 0.50000  0.81524  0.61064  Biso   1.000  H
  O879     1.0000 0.75000  0.54765  0.66476  Biso   1.000  O
  C1383    1.0000 0.75000  0.59220  0.61625  Biso   1.000  C
  H711     1.0000 0.75000  0.56524  0.61064  Biso   1.000  H
  O880     1.0000 0.75000  0.79765  0.91477  Biso   1.000  O
  C1384    1.0000 0.75000  0.84220  0.86625  Biso   1.000  C
  H712     1.0000 0.75000  0.81524  0.86064  Biso   1.000  H
  O881     1.0000 0.50000  0.95235  0.91477  Biso   1.000  O
  C1385    1.0000 0.50000  0.90780  0.86625  Biso   1.000  C
  H713     1.0000 0.50000  0.93476  0.86064  Biso   1.000  H
  O882     1.0000 0.50000  0.70235  0.66476  Biso   1.000  O
  C1386    1.0000 0.50000  0.65780  0.61625  Biso   1.000  C
  H714     1.0000 0.50000  0.68476  0.61064  Biso   1.000  H
  O883     1.0000 0.75000  0.95235  0.66476  Biso   1.000  O
  C1387    1.0000 0.75000  0.90780  0.61625  Biso   1.000  C
  H715     1.0000 0.75000  0.93476  0.61064  Biso   1.000  H
  O884     1.0000 0.75000  0.70235  0.91477  Biso   1.000  O
  C1388    1.0000 0.75000  0.65780  0.86625  Biso   1.000  C
  H716     1.0000 0.75000  0.68476  0.86064  Biso   1.000  H
  O885     1.0000 0.50000  0.95235  0.58523  Biso   1.000  O
  C1389    1.0000 0.50000  0.90780  0.63375  Biso   1.000  C
  H717     1.0000 0.50000  0.93476  0.63936  Biso   1.000  H
  O886     1.0000 0.50000  0.70235  0.83524  Biso   1.000  O
  C1390    1.0000 0.50000  0.65780  0.88375  Biso   1.000  C
  H718     1.0000 0.50000  0.68476  0.88936  Biso   1.000  H
  O887     1.0000 0.75000  0.95235  0.83524  Biso   1.000  O
  C1391    1.0000 0.75000  0.90780  0.88375  Biso   1.000  C
  H719     1.0000 0.75000  0.93476  0.88936  Biso   1.000  H
  O888     1.0000 0.75000  0.70235  0.58523  Biso   1.000  O
  C1392    1.0000 0.75000  0.65780  0.63375  Biso   1.000  C
  H720     1.0000 0.75000  0.68476  0.63936  Biso   1.000  H
  O889     1.0000 0.50000  0.58523  0.95235  Biso   1.000  O
  C1393    1.0000 0.50000  0.63375  0.90780  Biso   1.000  C
  H721     1.0000 0.50000  0.63936  0.93476  Biso   1.000  H
  O890     1.0000 0.50000  0.83524  0.70235  Biso   1.000  O
  C1394    1.0000 0.50000  0.88375  0.65780  Biso   1.000  C
  H722     1.0000 0.50000  0.88936  0.68476  Biso   1.000  H
  O891     1.0000 0.75000  0.58523  0.70235  Biso   1.000  O
  C1395    1.0000 0.75000  0.63375  0.65780  Biso   1.000  C
  H723     1.0000 0.75000  0.63936  0.68476  Biso   1.000  H
  O892     1.0000 0.75000  0.83524  0.95235  Biso   1.000  O
  C1396    1.0000 0.75000  0.88375  0.90780  Biso   1.000  C
  H724     1.0000 0.75000  0.88936  0.93476  Biso   1.000  H
  O893     1.0000 0.50000  0.91477  0.95235  Biso   1.000  O
  C1397    1.0000 0.50000  0.86625  0.90780  Biso   1.000  C
  H725     1.0000 0.50000  0.86064  0.93476  Biso   1.000  H
  O894     1.0000 0.50000  0.66476  0.70235  Biso   1.000  O
  C1398    1.0000 0.50000  0.61625  0.65780  Biso   1.000  C
  H726     1.0000 0.50000  0.61064  0.68476  Biso   1.000  H
  O895     1.0000 0.75000  0.91477  0.70235  Biso   1.000  O
  C1399    1.0000 0.75000  0.86625  0.65780  Biso   1.000  C
  H727     1.0000 0.75000  0.86064  0.68476  Biso   1.000  H
  O896     1.0000 0.75000  0.66476  0.95235  Biso   1.000  O
  C1400    1.0000 0.75000  0.61625  0.90780  Biso   1.000  C
  H728     1.0000 0.75000  0.61064  0.93476  Biso   1.000  H
  O897     1.0000 0.50000  0.91477  0.54765  Biso   1.000  O
  C1401    1.0000 0.50000  0.86625  0.59220  Biso   1.000  C
  H729     1.0000 0.50000  0.86064  0.56524  Biso   1.000  H
  O898     1.0000 0.50000  0.66476  0.79765  Biso   1.000  O
  C1402    1.0000 0.50000  0.61625  0.84220  Biso   1.000  C
  H730     1.0000 0.50000  0.61064  0.81524  Biso   1.000  H
  O899     1.0000 0.75000  0.91477  0.79765  Biso   1.000  O
  C1403    1.0000 0.75000  0.86625  0.84220  Biso   1.000  C
  H731     1.0000 0.75000  0.86064  0.81524  Biso   1.000  H
  O900     1.0000 0.75000  0.66476  0.54765  Biso   1.000  O
  C1404    1.0000 0.75000  0.61625  0.59220  Biso   1.000  C
  H732     1.0000 0.75000  0.61064  0.56524  Biso   1.000  H
  O901     1.0000 0.50000  0.58523  0.54765  Biso   1.000  O
  C1405    1.0000 0.50000  0.63375  0.59220  Biso   1.000  C
  H733     1.0000 0.50000  0.63936  0.56524  Biso   1.000  H
  O902     1.0000 0.50000  0.83524  0.79765  Biso   1.000  O
  C1406    1.0000 0.50000  0.88375  0.84220  Biso   1.000  C
  H734     1.0000 0.50000  0.88936  0.81524  Biso   1.000  H
  O903     1.0000 0.75000  0.58523  0.79765  Biso   1.000  O
  C1407    1.0000 0.75000  0.63375  0.84220  Biso   1.000  C
  H735     1.0000 0.75000  0.63936  0.81524  Biso   1.000  H
  O904     1.0000 0.75000  0.83524  0.54765  Biso   1.000  O
  C1408    1.0000 0.75000  0.88375  0.59220  Biso   1.000  C
  H736     1.0000 0.75000  0.88936  0.56524  Biso   1.000  H
  O905     1.0000 0.58523  0.54765  0.50000  Biso   1.000  O
  C1409    1.0000 0.63375  0.59220  0.50000  Biso   1.000  C
  H737     1.0000 0.63936  0.56524  0.50000  Biso   1.000  H
  O906     1.0000 0.58523  0.79765  0.75000  Biso   1.000  O
  C1410    1.0000 0.63375  0.84220  0.75000  Biso   1.000  C
  H738     1.0000 0.63936  0.81524  0.75000  Biso   1.000  H
  O907     1.0000 0.83524  0.54765  0.75000  Biso   1.000  O
  C1411    1.0000 0.88375  0.59220  0.75000  Biso   1.000  C
  H739     1.0000 0.88936  0.56524  0.75000  Biso   1.000  H
  O908     1.0000 0.83524  0.79765  0.50000  Biso   1.000  O
  C1412    1.0000 0.88375  0.84220  0.50000  Biso   1.000  C
  H740     1.0000 0.88936  0.81524  0.50000  Biso   1.000  H
  O909     1.0000 0.91477  0.54765  0.50000  Biso   1.000  O
  C1413    1.0000 0.86625  0.59220  0.50000  Biso   1.000  C
  H741     1.0000 0.86064  0.56524  0.50000  Biso   1.000  H
  O910     1.0000 0.91477  0.79765  0.75000  Biso   1.000  O
  C1414    1.0000 0.86625  0.84220  0.75000  Biso   1.000  C
  H742     1.0000 0.86064  0.81524  0.75000  Biso   1.000  H
  O911     1.0000 0.66476  0.54765  0.75000  Biso   1.000  O
  C1415    1.0000 0.61625  0.59220  0.75000  Biso   1.000  C
  H743     1.0000 0.61064  0.56524  0.75000  Biso   1.000  H
  O912     1.0000 0.66476  0.79765  0.50000  Biso   1.000  O
  C1416    1.0000 0.61625  0.84220  0.50000  Biso   1.000  C
  H744     1.0000 0.61064  0.81524  0.50000  Biso   1.000  H
  O913     1.0000 0.91477  0.95235  0.50000  Biso   1.000  O
  C1417    1.0000 0.86625  0.90780  0.50000  Biso   1.000  C
  H745     1.0000 0.86064  0.93476  0.50000  Biso   1.000  H
  O914     1.0000 0.91477  0.70235  0.75000  Biso   1.000  O
  C1418    1.0000 0.86625  0.65780  0.75000  Biso   1.000  C
  H746     1.0000 0.86064  0.68476  0.75000  Biso   1.000  H
  O915     1.0000 0.66476  0.95235  0.75000  Biso   1.000  O
  C1419    1.0000 0.61625  0.90780  0.75000  Biso   1.000  C
  H747     1.0000 0.61064  0.93476  0.75000  Biso   1.000  H
  O916     1.0000 0.66476  0.70235  0.50000  Biso   1.000  O
  C1420    1.0000 0.61625  0.65780  0.50000  Biso   1.000  C
  H748     1.0000 0.61064  0.68476  0.50000  Biso   1.000  H
  O917     1.0000 0.58523  0.95235  0.50000  Biso   1.000  O
  C1421    1.0000 0.63375  0.90780  0.50000  Biso   1.000  C
  H749     1.0000 0.63936  0.93476  0.50000  Biso   1.000  H
  O918     1.0000 0.58523  0.70235  0.75000  Biso   1.000  O
  C1422    1.0000 0.63375  0.65780  0.75000  Biso   1.000  C
  H750     1.0000 0.63936  0.68476  0.75000  Biso   1.000  H
  O919     1.0000 0.83524  0.95235  0.75000  Biso   1.000  O
  C1423    1.0000 0.88375  0.90780  0.75000  Biso   1.000  C
  H751     1.0000 0.88936  0.93476  0.75000  Biso   1.000  H
  O920     1.0000 0.83524  0.70235  0.50000  Biso   1.000  O
  C1424    1.0000 0.88375  0.65780  0.50000  Biso   1.000  C
  H752     1.0000 0.88936  0.68476  0.50000  Biso   1.000  H
  O921     1.0000 0.54765  0.50000  0.91477  Biso   1.000  O
  C1425    1.0000 0.59220  0.50000  0.86625  Biso   1.000  C
  H753     1.0000 0.56524  0.50000  0.86064  Biso   1.000  H
  O922     1.0000 0.54765  0.75000  0.66476  Biso   1.000  O
  C1426    1.0000 0.59220  0.75000  0.61625  Biso   1.000  C
  H754     1.0000 0.56524  0.75000  0.61064  Biso   1.000  H
  O923     1.0000 0.79765  0.50000  0.66476  Biso   1.000  O
  C1427    1.0000 0.84220  0.50000  0.61625  Biso   1.000  C
  H755     1.0000 0.81524  0.50000  0.61064  Biso   1.000  H
  O924     1.0000 0.79765  0.75000  0.91477  Biso   1.000  O
  C1428    1.0000 0.84220  0.75000  0.86625  Biso   1.000  C
  H756     1.0000 0.81524  0.75000  0.86064  Biso   1.000  H
  O925     1.0000 0.54765  0.50000  0.58523  Biso   1.000  O
  C1429    1.0000 0.59220  0.50000  0.63375  Biso   1.000  C
  H757     1.0000 0.56524  0.50000  0.63936  Biso   1.000  H
  O926     1.0000 0.54765  0.75000  0.83524  Biso   1.000  O
  C1430    1.0000 0.59220  0.75000  0.88375  Biso   1.000  C
  H758     1.0000 0.56524  0.75000  0.88936  Biso   1.000  H
  O927     1.0000 0.79765  0.50000  0.83524  Biso   1.000  O
  C1431    1.0000 0.84220  0.50000  0.88375  Biso   1.000  C
  H759     1.0000 0.81524  0.50000  0.88936  Biso   1.000  H
  O928     1.0000 0.79765  0.75000  0.58523  Biso   1.000  O
  C1432    1.0000 0.84220  0.75000  0.63375  Biso   1.000  C
  H760     1.0000 0.81524  0.75000  0.63936  Biso   1.000  H
  O929     1.0000 0.95235  0.50000  0.58523  Biso   1.000  O
  C1433    1.0000 0.90780  0.50000  0.63375  Biso   1.000  C
  H761     1.0000 0.93476  0.50000  0.63936  Biso   1.000  H
  O930     1.0000 0.95235  0.75000  0.83524  Biso   1.000  O
  C1434    1.0000 0.90780  0.75000  0.88375  Biso   1.000  C
  H762     1.0000 0.93476  0.75000  0.88936  Biso   1.000  H
  O931     1.0000 0.70235  0.50000  0.83524  Biso   1.000  O
  C1435    1.0000 0.65780  0.50000  0.88375  Biso   1.000  C
  H763     1.0000 0.68476  0.50000  0.88936  Biso   1.000  H
  O932     1.0000 0.70235  0.75000  0.58523  Biso   1.000  O
  C1436    1.0000 0.65780  0.75000  0.63375  Biso   1.000  C
  H764     1.0000 0.68476  0.75000  0.63936  Biso   1.000  H
  O933     1.0000 0.95235  0.50000  0.91477  Biso   1.000  O
  C1437    1.0000 0.90780  0.50000  0.86625  Biso   1.000  C
  H765     1.0000 0.93476  0.50000  0.86064  Biso   1.000  H
  O934     1.0000 0.95235  0.75000  0.66476  Biso   1.000  O
  C1438    1.0000 0.90780  0.75000  0.61625  Biso   1.000  C
  H766     1.0000 0.93476  0.75000  0.61064  Biso   1.000  H
  O935     1.0000 0.70235  0.50000  0.66476  Biso   1.000  O
  C1439    1.0000 0.65780  0.50000  0.61625  Biso   1.000  C
  H767     1.0000 0.68476  0.50000  0.61064  Biso   1.000  H
  O936     1.0000 0.70235  0.75000  0.91477  Biso   1.000  O
  C1440    1.0000 0.65780  0.75000  0.86625  Biso   1.000  C
  H768     1.0000 0.68476  0.75000  0.86064  Biso   1.000  H
  O937     1.0000 0.52805  0.72195  0.72195  Biso   1.000  O
  O938     1.0000 0.77805  0.97195  0.72195  Biso   1.000  O
  O939     1.0000 0.77805  0.72195  0.97195  Biso   1.000  O
  O940     1.0000 0.72195  0.52805  0.72195  Biso   1.000  O
  O941     1.0000 0.72195  0.77805  0.97195  Biso   1.000  O
  O942     1.0000 0.97195  0.97195  0.52805  Biso   1.000  O
  O943     1.0000 0.97195  0.72195  0.77805  Biso   1.000  O
  O944     1.0000 0.52805  0.52805  0.52805  Biso   1.000  O
  O945     1.0000 0.77805  0.77805  0.52805  Biso   1.000  O
  O946     1.0000 0.97195  0.52805  0.52805  Biso   1.000  O
  O947     1.0000 0.97195  0.77805  0.77805  Biso   1.000  O
  O948     1.0000 0.72195  0.52805  0.77805  Biso   1.000  O
  O949     1.0000 0.72195  0.77805  0.52805  Biso   1.000  O
  O950     1.0000 0.52805  0.97195  0.52805  Biso   1.000  O
  O951     1.0000 0.52805  0.72195  0.77805  Biso   1.000  O
  O952     1.0000 0.77805  0.97195  0.77805  Biso   1.000  O
  O953     1.0000 0.77805  0.72195  0.52805  Biso   1.000  O
  O954     1.0000 0.97195  0.97195  0.97195  Biso   1.000  O
  O955     1.0000 0.97195  0.72195  0.72195  Biso   1.000  O
  O956     1.0000 0.72195  0.97195  0.72195  Biso   1.000  O
  O957     1.0000 0.72195  0.72195  0.97195  Biso   1.000  O
  O958     1.0000 0.52805  0.52805  0.97195  Biso   1.000  O
  O959     1.0000 0.52805  0.77805  0.72195  Biso   1.000  O
  O960     1.0000 0.77805  0.52805  0.72195  Biso   1.000  O
  C1441    1.0000 0.57680  0.50000  0.92320  Biso   1.000  C
  C1442    1.0000 0.57680  0.75000  0.67320  Biso   1.000  C
  C1443    1.0000 0.82680  0.50000  0.67320  Biso   1.000  C
  C1444    1.0000 0.82680  0.75000  0.92320  Biso   1.000  C
  C1445    1.0000 0.92320  0.50000  0.92320  Biso   1.000  C
  C1446    1.0000 0.92320  0.75000  0.67320  Biso   1.000  C
  C1447    1.0000 0.67320  0.50000  0.67320  Biso   1.000  C
  C1448    1.0000 0.67320  0.75000  0.92320  Biso   1.000  C
  C1449    1.0000 0.92320  0.50000  0.57680  Biso   1.000  C
  C1450    1.0000 0.92320  0.75000  0.82680  Biso   1.000  C
  C1451    1.0000 0.67320  0.50000  0.82680  Biso   1.000  C
  C1452    1.0000 0.67320  0.75000  0.57680  Biso   1.000  C
  C1453    1.0000 0.57680  0.50000  0.57680  Biso   1.000  C
  C1454    1.0000 0.57680  0.75000  0.82680  Biso   1.000  C
  C1455    1.0000 0.82680  0.50000  0.82680  Biso   1.000  C
  C1456    1.0000 0.82680  0.75000  0.57680  Biso   1.000  C
  C1457    1.0000 0.92320  0.57680  0.50000  Biso   1.000  C
  C1458    1.0000 0.92320  0.82680  0.75000  Biso   1.000  C
  C1459    1.0000 0.67320  0.57680  0.75000  Biso   1.000  C
  C1460    1.0000 0.67320  0.82680  0.50000  Biso   1.000  C
  C1461    1.0000 0.92320  0.92320  0.50000  Biso   1.000  C
  C1462    1.0000 0.92320  0.67320  0.75000  Biso   1.000  C
  C1463    1.0000 0.67320  0.92320  0.75000  Biso   1.000  C
  C1464    1.0000 0.67320  0.67320  0.50000  Biso   1.000  C
  C1465    1.0000 0.57680  0.92320  0.50000  Biso   1.000  C
  C1466    1.0000 0.57680  0.67320  0.75000  Biso   1.000  C
  C1467    1.0000 0.82680  0.92320  0.75000  Biso   1.000  C
  C1468    1.0000 0.82680  0.67320  0.50000  Biso   1.000  C
  C1469    1.0000 0.57680  0.57680  0.50000  Biso   1.000  C
  C1470    1.0000 0.57680  0.82680  0.75000  Biso   1.000  C
  C1471    1.0000 0.82680  0.57680  0.75000  Biso   1.000  C
  C1472    1.0000 0.82680  0.82680  0.50000  Biso   1.000  C
  C1473    1.0000 0.50000  0.92320  0.57680  Biso   1.000  C
  C1474    1.0000 0.50000  0.67320  0.82680  Biso   1.000  C
  C1475    1.0000 0.75000  0.92320  0.82680  Biso   1.000  C
  C1476    1.0000 0.75000  0.67320  0.57680  Biso   1.000  C
  C1477    1.0000 0.50000  0.92320  0.92320  Biso   1.000  C
  C1478    1.0000 0.50000  0.67320  0.67320  Biso   1.000  C
  C1479    1.0000 0.75000  0.92320  0.67320  Biso   1.000  C
  C1480    1.0000 0.75000  0.67320  0.92320  Biso   1.000  C
  C1481    1.0000 0.50000  0.57680  0.92320  Biso   1.000  C
  C1482    1.0000 0.50000  0.82680  0.67320  Biso   1.000  C
  C1483    1.0000 0.75000  0.57680  0.67320  Biso   1.000  C
  C1484    1.0000 0.75000  0.82680  0.92320  Biso   1.000  C
  C1485    1.0000 0.50000  0.57680  0.57680  Biso   1.000  C
  C1486    1.0000 0.50000  0.82680  0.82680  Biso   1.000  C
  C1487    1.0000 0.75000  0.57680  0.82680  Biso   1.000  C
  C1488    1.0000 0.75000  0.82680  0.57680  Biso   1.000  C
  C1489    1.0000 0.60250  0.50000  0.60250  Biso   1.000  C
  C1490    1.0000 0.60250  0.75000  0.85250  Biso   1.000  C
  C1491    1.0000 0.85250  0.50000  0.85250  Biso   1.000  C
  C1492    1.0000 0.85250  0.75000  0.60250  Biso   1.000  C
  C1493    1.0000 0.89750  0.50000  0.60250  Biso   1.000  C
  C1494    1.0000 0.89750  0.75000  0.85250  Biso   1.000  C
  C1495    1.0000 0.64750  0.50000  0.85250  Biso   1.000  C
  C1496    1.0000 0.64750  0.75000  0.60250  Biso   1.000  C
  C1497    1.0000 0.89750  0.50000  0.89750  Biso   1.000  C
  C1498    1.0000 0.89750  0.75000  0.64750  Biso   1.000  C
  C1499    1.0000 0.64750  0.50000  0.64750  Biso   1.000  C
  C1500    1.0000 0.64750  0.75000  0.89750  Biso   1.000  C
  C1501    1.0000 0.60250  0.50000  0.89750  Biso   1.000  C
  C1502    1.0000 0.60250  0.75000  0.64750  Biso   1.000  C
  C1503    1.0000 0.85250  0.50000  0.64750  Biso   1.000  C
  C1504    1.0000 0.85250  0.75000  0.89750  Biso   1.000  C
  C1505    1.0000 0.60250  0.60250  0.50000  Biso   1.000  C
  C1506    1.0000 0.60250  0.85250  0.75000  Biso   1.000  C
  C1507    1.0000 0.85250  0.60250  0.75000  Biso   1.000  C
  C1508    1.0000 0.85250  0.85250  0.50000  Biso   1.000  C
  C1509    1.0000 0.60250  0.89750  0.50000  Biso   1.000  C
  C1510    1.0000 0.60250  0.64750  0.75000  Biso   1.000  C
  C1511    1.0000 0.85250  0.89750  0.75000  Biso   1.000  C
  C1512    1.0000 0.85250  0.64750  0.50000  Biso   1.000  C
  C1513    1.0000 0.89750  0.89750  0.50000  Biso   1.000  C
  C1514    1.0000 0.89750  0.64750  0.75000  Biso   1.000  C
  C1515    1.0000 0.64750  0.89750  0.75000  Biso   1.000  C
  C1516    1.0000 0.64750  0.64750  0.50000  Biso   1.000  C
  C1517    1.0000 0.89750  0.60250  0.50000  Biso   1.000  C
  C1518    1.0000 0.89750  0.85250  0.75000  Biso   1.000  C
  C1519    1.0000 0.64750  0.60250  0.75000  Biso   1.000  C
  C1520    1.0000 0.64750  0.85250  0.50000  Biso   1.000  C
  C1521    1.0000 0.50000  0.60250  0.60250  Biso   1.000  C
  C1522    1.0000 0.50000  0.85250  0.85250  Biso   1.000  C
  C1523    1.0000 0.75000  0.60250  0.85250  Biso   1.000  C
  C1524    1.0000 0.75000  0.85250  0.60250  Biso   1.000  C
  C1525    1.0000 0.50000  0.60250  0.89750  Biso   1.000  C
  C1526    1.0000 0.50000  0.85250  0.64750  Biso   1.000  C
  C1527    1.0000 0.75000  0.60250  0.64750  Biso   1.000  C
  C1528    1.0000 0.75000  0.85250  0.89750  Biso   1.000  C
  C1529    1.0000 0.50000  0.89750  0.89750  Biso   1.000  C
  C1530    1.0000 0.50000  0.64750  0.64750  Biso   1.000  C
  C1531    1.0000 0.75000  0.89750  0.64750  Biso   1.000  C
  C1532    1.0000 0.75000  0.64750  0.89750  Biso   1.000  C
  C1533    1.0000 0.50000  0.89750  0.60250  Biso   1.000  C
  C1534    1.0000 0.50000  0.64750  0.85250  Biso   1.000  C
  C1535    1.0000 0.75000  0.89750  0.85250  Biso   1.000  C
  C1536    1.0000 0.75000  0.64750  0.60250  Biso   1.000  C
