data_crystal
 
_cell_length_a    20.70040
_cell_length_b    20.70040
_cell_length_c    20.70040
_cell_angle_alpha 90.00000
_cell_angle_beta  90.00000
_cell_angle_gamma 90.00000
 
_symmetry_space_group_name_Hall 'P 1'
_symmetry_space_group_name_H-M  'P 1'
 
loop_
_symmetry_equiv_pos_as_xyz
 'x,y,z' 
 
loop_
_atom_site_label
_atom_site_type_symbol
_atom_site_fract_x
_atom_site_fract_y
_atom_site_fract_z
_atom_site_charge
Zr         Zr      0.11989   0.00000   0.00000   0.0000000000
Zr         Zr      0.11989   0.50000   0.50000   0.0000000000
Zr         Zr      0.61989   0.00000   0.50000   0.0000000000
Zr         Zr      0.61989   0.50000   0.00000   0.0000000000
Zr         Zr      0.88011   0.00000   0.00000   0.0000000000
Zr         Zr      0.88011   0.50000   0.50000   0.0000000000
Zr         Zr      0.38011   0.00000   0.50000   0.0000000000
Zr         Zr      0.38011   0.50000   0.00000   0.0000000000
Zr         Zr      0.00000   0.11989   0.00000   0.0000000000
Zr         Zr      0.00000   0.61989   0.50000   0.0000000000
Zr         Zr      0.50000   0.11989   0.50000   0.0000000000
Zr         Zr      0.50000   0.61989   0.00000   0.0000000000
Zr         Zr      0.00000   0.88011   0.00000   0.0000000000
Zr         Zr      0.00000   0.38011   0.50000   0.0000000000
Zr         Zr      0.50000   0.88011   0.50000   0.0000000000
Zr         Zr      0.50000   0.38011   0.00000   0.0000000000
Zr         Zr      0.00000   0.00000   0.11989   0.0000000000
Zr         Zr      0.00000   0.50000   0.61989   0.0000000000
Zr         Zr      0.50000   0.00000   0.61989   0.0000000000
Zr         Zr      0.50000   0.50000   0.11989   0.0000000000
Zr         Zr      0.00000   0.00000   0.88011   0.0000000000
Zr         Zr      0.00000   0.50000   0.38011   0.0000000000
Zr         Zr      0.50000   0.00000   0.38011   0.0000000000
Zr         Zr      0.50000   0.50000   0.88011   0.0000000000
O          O       0.17047   0.00000   0.09530   0.0000000000
C          C       0.26750   0.00000   0.18440   0.0000000000
H          H       0.27872   0.00000   0.13048   0.0000000000
O          O       0.17047   0.50000   0.59530   0.0000000000
C          C       0.26750   0.50000   0.68440   0.0000000000
H          H       0.27872   0.50000   0.63048   0.0000000000
O          O       0.67047   0.00000   0.59530   0.0000000000
C          C       0.76750   0.00000   0.68440   0.0000000000
H          H       0.77872   0.00000   0.63048   0.0000000000
O          O       0.67047   0.50000   0.09530   0.0000000000
C          C       0.76750   0.50000   0.18440   0.0000000000
H          H       0.77872   0.50000   0.13048   0.0000000000
O          O       0.82953   0.00000   0.09530   0.0000000000
C          C       0.73250   0.00000   0.18440   0.0000000000
H          H       0.72128   0.00000   0.13048   0.0000000000
O          O       0.82953   0.50000   0.59530   0.0000000000
C          C       0.73250   0.50000   0.68440   0.0000000000
H          H       0.72128   0.50000   0.63048   0.0000000000
O          O       0.32953   0.00000   0.59530   0.0000000000
C          C       0.23250   0.00000   0.68440   0.0000000000
H          H       0.22128   0.00000   0.63048   0.0000000000
O          O       0.32953   0.50000   0.09530   0.0000000000
C          C       0.23250   0.50000   0.18440   0.0000000000
H          H       0.22128   0.50000   0.13048   0.0000000000
O          O       0.82953   0.00000   0.90470   0.0000000000
C          C       0.73250   0.00000   0.81560   0.0000000000
H          H       0.72128   0.00000   0.86952   0.0000000000
O          O       0.82953   0.50000   0.40470   0.0000000000
C          C       0.73250   0.50000   0.31560   0.0000000000
H          H       0.72128   0.50000   0.36952   0.0000000000
O          O       0.32953   0.00000   0.40470   0.0000000000
C          C       0.23250   0.00000   0.31560   0.0000000000
H          H       0.22128   0.00000   0.36952   0.0000000000
O          O       0.32953   0.50000   0.90470   0.0000000000
C          C       0.23250   0.50000   0.81560   0.0000000000
H          H       0.22128   0.50000   0.86952   0.0000000000
O          O       0.17047   0.00000   0.90470   0.0000000000
C          C       0.26750   0.00000   0.81560   0.0000000000
H          H       0.27872   0.00000   0.86952   0.0000000000
O          O       0.17047   0.50000   0.40470   0.0000000000
C          C       0.26750   0.50000   0.31560   0.0000000000
H          H       0.27872   0.50000   0.36952   0.0000000000
O          O       0.67047   0.00000   0.40470   0.0000000000
C          C       0.76750   0.00000   0.31560   0.0000000000
H          H       0.77872   0.00000   0.36952   0.0000000000
O          O       0.67047   0.50000   0.90470   0.0000000000
C          C       0.76750   0.50000   0.81560   0.0000000000
H          H       0.77872   0.50000   0.86952   0.0000000000
O          O       0.09530   0.17047   0.00000   0.0000000000
C          C       0.18440   0.26750   0.00000   0.0000000000
H          H       0.13048   0.27872   0.00000   0.0000000000
O          O       0.09530   0.67047   0.50000   0.0000000000
C          C       0.18440   0.76750   0.50000   0.0000000000
H          H       0.13048   0.77872   0.50000   0.0000000000
O          O       0.59530   0.17047   0.50000   0.0000000000
C          C       0.68440   0.26750   0.50000   0.0000000000
H          H       0.63048   0.27872   0.50000   0.0000000000
O          O       0.59530   0.67047   0.00000   0.0000000000
C          C       0.68440   0.76750   0.00000   0.0000000000
H          H       0.63048   0.77872   0.00000   0.0000000000
O          O       0.09530   0.82953   0.00000   0.0000000000
C          C       0.18440   0.73250   0.00000   0.0000000000
H          H       0.13048   0.72128   0.00000   0.0000000000
O          O       0.09530   0.32953   0.50000   0.0000000000
C          C       0.18440   0.23250   0.50000   0.0000000000
H          H       0.13048   0.22128   0.50000   0.0000000000
O          O       0.59530   0.82953   0.50000   0.0000000000
C          C       0.68440   0.73250   0.50000   0.0000000000
H          H       0.63048   0.72128   0.50000   0.0000000000
O          O       0.59530   0.32953   0.00000   0.0000000000
C          C       0.68440   0.23250   0.00000   0.0000000000
H          H       0.63048   0.22128   0.00000   0.0000000000
O          O       0.90470   0.82953   0.00000   0.0000000000
C          C       0.81560   0.73250   0.00000   0.0000000000
H          H       0.86952   0.72128   0.00000   0.0000000000
O          O       0.90470   0.32953   0.50000   0.0000000000
C          C       0.81560   0.23250   0.50000   0.0000000000
H          H       0.86952   0.22128   0.50000   0.0000000000
O          O       0.40470   0.82953   0.50000   0.0000000000
C          C       0.31560   0.73250   0.50000   0.0000000000
H          H       0.36952   0.72128   0.50000   0.0000000000
O          O       0.40470   0.32953   0.00000   0.0000000000
C          C       0.31560   0.23250   0.00000   0.0000000000
H          H       0.36952   0.22128   0.00000   0.0000000000
O          O       0.90470   0.17047   0.00000   0.0000000000
C          C       0.81560   0.26750   0.00000   0.0000000000
H          H       0.86952   0.27872   0.00000   0.0000000000
O          O       0.90470   0.67047   0.50000   0.0000000000
C          C       0.81560   0.76750   0.50000   0.0000000000
H          H       0.86952   0.77872   0.50000   0.0000000000
O          O       0.40470   0.17047   0.50000   0.0000000000
C          C       0.31560   0.26750   0.50000   0.0000000000
H          H       0.36952   0.27872   0.50000   0.0000000000
O          O       0.40470   0.67047   0.00000   0.0000000000
C          C       0.31560   0.76750   0.00000   0.0000000000
H          H       0.36952   0.77872   0.00000   0.0000000000
O          O       0.00000   0.09530   0.17047   0.0000000000
C          C       0.00000   0.18440   0.26750   0.0000000000
H          H       0.00000   0.13048   0.27872   0.0000000000
O          O       0.00000   0.59530   0.67047   0.0000000000
C          C       0.00000   0.68440   0.76750   0.0000000000
H          H       0.00000   0.63048   0.77872   0.0000000000
O          O       0.50000   0.09530   0.67047   0.0000000000
C          C       0.50000   0.18440   0.76750   0.0000000000
H          H       0.50000   0.13048   0.77872   0.0000000000
O          O       0.50000   0.59530   0.17047   0.0000000000
C          C       0.50000   0.68440   0.26750   0.0000000000
H          H       0.50000   0.63048   0.27872   0.0000000000
O          O       0.00000   0.09530   0.82953   0.0000000000
C          C       0.00000   0.18440   0.73250   0.0000000000
H          H       0.00000   0.13048   0.72128   0.0000000000
O          O       0.00000   0.59530   0.32953   0.0000000000
C          C       0.00000   0.68440   0.23250   0.0000000000
H          H       0.00000   0.63048   0.22128   0.0000000000
O          O       0.50000   0.09530   0.32953   0.0000000000
C          C       0.50000   0.18440   0.23250   0.0000000000
H          H       0.50000   0.13048   0.22128   0.0000000000
O          O       0.50000   0.59530   0.82953   0.0000000000
C          C       0.50000   0.68440   0.73250   0.0000000000
H          H       0.50000   0.63048   0.72128   0.0000000000
O          O       0.00000   0.90470   0.82953   0.0000000000
C          C       0.00000   0.81560   0.73250   0.0000000000
H          H       0.00000   0.86952   0.72128   0.0000000000
O          O       0.00000   0.40470   0.32953   0.0000000000
C          C       0.00000   0.31560   0.23250   0.0000000000
H          H       0.00000   0.36952   0.22128   0.0000000000
O          O       0.50000   0.90470   0.32953   0.0000000000
C          C       0.50000   0.81560   0.23250   0.0000000000
H          H       0.50000   0.86952   0.22128   0.0000000000
O          O       0.50000   0.40470   0.82953   0.0000000000
C          C       0.50000   0.31560   0.73250   0.0000000000
H          H       0.50000   0.36952   0.72128   0.0000000000
O          O       0.00000   0.90470   0.17047   0.0000000000
C          C       0.00000   0.81560   0.26750   0.0000000000
H          H       0.00000   0.86952   0.27872   0.0000000000
O          O       0.00000   0.40470   0.67047   0.0000000000
C          C       0.00000   0.31560   0.76750   0.0000000000
H          H       0.00000   0.36952   0.77872   0.0000000000
O          O       0.50000   0.90470   0.67047   0.0000000000
C          C       0.50000   0.81560   0.76750   0.0000000000
H          H       0.50000   0.86952   0.77872   0.0000000000
O          O       0.50000   0.40470   0.17047   0.0000000000
C          C       0.50000   0.31560   0.26750   0.0000000000
H          H       0.50000   0.36952   0.27872   0.0000000000
O          O       0.00000   0.17047   0.90470   0.0000000000
C          C       0.00000   0.26750   0.81560   0.0000000000
H          H       0.00000   0.27872   0.86952   0.0000000000
O          O       0.00000   0.67047   0.40470   0.0000000000
C          C       0.00000   0.76750   0.31560   0.0000000000
H          H       0.00000   0.77872   0.36952   0.0000000000
O          O       0.50000   0.17047   0.40470   0.0000000000
C          C       0.50000   0.26750   0.31560   0.0000000000
H          H       0.50000   0.27872   0.36952   0.0000000000
O          O       0.50000   0.67047   0.90470   0.0000000000
C          C       0.50000   0.76750   0.81560   0.0000000000
H          H       0.50000   0.77872   0.86952   0.0000000000
O          O       0.00000   0.82953   0.90470   0.0000000000
C          C       0.00000   0.73250   0.81560   0.0000000000
H          H       0.00000   0.72128   0.86952   0.0000000000
O          O       0.00000   0.32953   0.40470   0.0000000000
C          C       0.00000   0.23250   0.31560   0.0000000000
H          H       0.00000   0.22128   0.36952   0.0000000000
O          O       0.50000   0.82953   0.40470   0.0000000000
C          C       0.50000   0.73250   0.31560   0.0000000000
H          H       0.50000   0.72128   0.36952   0.0000000000
O          O       0.50000   0.32953   0.90470   0.0000000000
C          C       0.50000   0.23250   0.81560   0.0000000000
H          H       0.50000   0.22128   0.86952   0.0000000000
O          O       0.00000   0.82953   0.09530   0.0000000000
C          C       0.00000   0.73250   0.18440   0.0000000000
H          H       0.00000   0.72128   0.13048   0.0000000000
O          O       0.00000   0.32953   0.59530   0.0000000000
C          C       0.00000   0.23250   0.68440   0.0000000000
H          H       0.00000   0.22128   0.63048   0.0000000000
O          O       0.50000   0.82953   0.59530   0.0000000000
C          C       0.50000   0.73250   0.68440   0.0000000000
H          H       0.50000   0.72128   0.63048   0.0000000000
O          O       0.50000   0.32953   0.09530   0.0000000000
C          C       0.50000   0.23250   0.18440   0.0000000000
H          H       0.50000   0.22128   0.13048   0.0000000000
O          O       0.00000   0.17047   0.09530   0.0000000000
C          C       0.00000   0.26750   0.18440   0.0000000000
H          H       0.00000   0.27872   0.13048   0.0000000000
O          O       0.00000   0.67047   0.59530   0.0000000000
C          C       0.00000   0.76750   0.68440   0.0000000000
H          H       0.00000   0.77872   0.63048   0.0000000000
O          O       0.50000   0.17047   0.59530   0.0000000000
C          C       0.50000   0.26750   0.68440   0.0000000000
H          H       0.50000   0.27872   0.63048   0.0000000000
O          O       0.50000   0.67047   0.09530   0.0000000000
C          C       0.50000   0.76750   0.18440   0.0000000000
H          H       0.50000   0.77872   0.13048   0.0000000000
O          O       0.17047   0.09530   0.00000   0.0000000000
C          C       0.26750   0.18440   0.00000   0.0000000000
H          H       0.27872   0.13048   0.00000   0.0000000000
O          O       0.17047   0.59530   0.50000   0.0000000000
C          C       0.26750   0.68440   0.50000   0.0000000000
H          H       0.27872   0.63048   0.50000   0.0000000000
O          O       0.67047   0.09530   0.50000   0.0000000000
C          C       0.76750   0.18440   0.50000   0.0000000000
H          H       0.77872   0.13048   0.50000   0.0000000000
O          O       0.67047   0.59530   0.00000   0.0000000000
C          C       0.76750   0.68440   0.00000   0.0000000000
H          H       0.77872   0.63048   0.00000   0.0000000000
O          O       0.82953   0.09530   0.00000   0.0000000000
C          C       0.73250   0.18440   0.00000   0.0000000000
H          H       0.72128   0.13048   0.00000   0.0000000000
O          O       0.82953   0.59530   0.50000   0.0000000000
C          C       0.73250   0.68440   0.50000   0.0000000000
H          H       0.72128   0.63048   0.50000   0.0000000000
O          O       0.32953   0.09530   0.50000   0.0000000000
C          C       0.23250   0.18440   0.50000   0.0000000000
H          H       0.22128   0.13048   0.50000   0.0000000000
O          O       0.32953   0.59530   0.00000   0.0000000000
C          C       0.23250   0.68440   0.00000   0.0000000000
H          H       0.22128   0.63048   0.00000   0.0000000000
O          O       0.82953   0.90470   0.00000   0.0000000000
C          C       0.73250   0.81560   0.00000   0.0000000000
H          H       0.72128   0.86952   0.00000   0.0000000000
O          O       0.82953   0.40470   0.50000   0.0000000000
C          C       0.73250   0.31560   0.50000   0.0000000000
H          H       0.72128   0.36952   0.50000   0.0000000000
O          O       0.32953   0.90470   0.50000   0.0000000000
C          C       0.23250   0.81560   0.50000   0.0000000000
H          H       0.22128   0.86952   0.50000   0.0000000000
O          O       0.32953   0.40470   0.00000   0.0000000000
C          C       0.23250   0.31560   0.00000   0.0000000000
H          H       0.22128   0.36952   0.00000   0.0000000000
O          O       0.17047   0.90470   0.00000   0.0000000000
C          C       0.26750   0.81560   0.00000   0.0000000000
H          H       0.27872   0.86952   0.00000   0.0000000000
O          O       0.17047   0.40470   0.50000   0.0000000000
C          C       0.26750   0.31560   0.50000   0.0000000000
H          H       0.27872   0.36952   0.50000   0.0000000000
O          O       0.67047   0.90470   0.50000   0.0000000000
C          C       0.76750   0.81560   0.50000   0.0000000000
H          H       0.77872   0.86952   0.50000   0.0000000000
O          O       0.67047   0.40470   0.00000   0.0000000000
C          C       0.76750   0.31560   0.00000   0.0000000000
H          H       0.77872   0.36952   0.00000   0.0000000000
O          O       0.09530   0.00000   0.82953   0.0000000000
C          C       0.18440   0.00000   0.73250   0.0000000000
H          H       0.13048   0.00000   0.72128   0.0000000000
O          O       0.09530   0.50000   0.32953   0.0000000000
C          C       0.18440   0.50000   0.23250   0.0000000000
H          H       0.13048   0.50000   0.22128   0.0000000000
O          O       0.59530   0.00000   0.32953   0.0000000000
C          C       0.68440   0.00000   0.23250   0.0000000000
H          H       0.63048   0.00000   0.22128   0.0000000000
O          O       0.59530   0.50000   0.82953   0.0000000000
C          C       0.68440   0.50000   0.73250   0.0000000000
H          H       0.63048   0.50000   0.72128   0.0000000000
O          O       0.09530   0.00000   0.17047   0.0000000000
C          C       0.18440   0.00000   0.26750   0.0000000000
H          H       0.13048   0.00000   0.27872   0.0000000000
O          O       0.09530   0.50000   0.67047   0.0000000000
C          C       0.18440   0.50000   0.76750   0.0000000000
H          H       0.13048   0.50000   0.77872   0.0000000000
O          O       0.59530   0.00000   0.67047   0.0000000000
C          C       0.68440   0.00000   0.76750   0.0000000000
H          H       0.63048   0.00000   0.77872   0.0000000000
O          O       0.59530   0.50000   0.17047   0.0000000000
C          C       0.68440   0.50000   0.26750   0.0000000000
H          H       0.63048   0.50000   0.27872   0.0000000000
O          O       0.90470   0.00000   0.17047   0.0000000000
C          C       0.81560   0.00000   0.26750   0.0000000000
H          H       0.86952   0.00000   0.27872   0.0000000000
O          O       0.90470   0.50000   0.67047   0.0000000000
C          C       0.81560   0.50000   0.76750   0.0000000000
H          H       0.86952   0.50000   0.77872   0.0000000000
O          O       0.40470   0.00000   0.67047   0.0000000000
C          C       0.31560   0.00000   0.76750   0.0000000000
H          H       0.36952   0.00000   0.77872   0.0000000000
O          O       0.40470   0.50000   0.17047   0.0000000000
C          C       0.31560   0.50000   0.26750   0.0000000000
H          H       0.36952   0.50000   0.27872   0.0000000000
O          O       0.90470   0.00000   0.82953   0.0000000000
C          C       0.81560   0.00000   0.73250   0.0000000000
H          H       0.86952   0.00000   0.72128   0.0000000000
O          O       0.90470   0.50000   0.32953   0.0000000000
C          C       0.81560   0.50000   0.23250   0.0000000000
H          H       0.86952   0.50000   0.22128   0.0000000000
O          O       0.40470   0.00000   0.32953   0.0000000000
C          C       0.31560   0.00000   0.23250   0.0000000000
H          H       0.36952   0.00000   0.22128   0.0000000000
O          O       0.40470   0.50000   0.82953   0.0000000000
C          C       0.31560   0.50000   0.73250   0.0000000000
H          H       0.36952   0.50000   0.72128   0.0000000000
O          O       0.05610   0.44390   0.44390   0.0000000000
O          O       0.55610   0.94390   0.44390   0.0000000000
O          O       0.55610   0.44390   0.94390   0.0000000000
O          O       0.44390   0.05610   0.44390   0.0000000000
O          O       0.44390   0.55610   0.94390   0.0000000000
O          O       0.94390   0.94390   0.05610   0.0000000000
O          O       0.94390   0.44390   0.55610   0.0000000000
O          O       0.05610   0.05610   0.05610   0.0000000000
O          O       0.55610   0.55610   0.05610   0.0000000000
O          O       0.94390   0.05610   0.05610   0.0000000000
O          O       0.94390   0.55610   0.55610   0.0000000000
O          O       0.44390   0.05610   0.55610   0.0000000000
O          O       0.44390   0.55610   0.05610   0.0000000000
O          O       0.05610   0.94390   0.05610   0.0000000000
O          O       0.05610   0.44390   0.55610   0.0000000000
O          O       0.55610   0.94390   0.55610   0.0000000000
O          O       0.55610   0.44390   0.05610   0.0000000000
O          O       0.94390   0.94390   0.94390   0.0000000000
O          O       0.94390   0.44390   0.44390   0.0000000000
O          O       0.44390   0.94390   0.44390   0.0000000000
O          O       0.44390   0.44390   0.94390   0.0000000000
O          O       0.05610   0.05610   0.94390   0.0000000000
O          O       0.05610   0.55610   0.44390   0.0000000000
O          O       0.55610   0.05610   0.44390   0.0000000000
C          C       0.15360   0.00000   0.84640   0.0000000000
C          C       0.15360   0.50000   0.34640   0.0000000000
C          C       0.65360   0.00000   0.34640   0.0000000000
C          C       0.65360   0.50000   0.84640   0.0000000000
C          C       0.84640   0.00000   0.84640   0.0000000000
C          C       0.84640   0.50000   0.34640   0.0000000000
C          C       0.34640   0.00000   0.34640   0.0000000000
C          C       0.34640   0.50000   0.84640   0.0000000000
C          C       0.84640   0.00000   0.15360   0.0000000000
C          C       0.84640   0.50000   0.65360   0.0000000000
C          C       0.34640   0.00000   0.65360   0.0000000000
C          C       0.34640   0.50000   0.15360   0.0000000000
C          C       0.15360   0.00000   0.15360   0.0000000000
C          C       0.15360   0.50000   0.65360   0.0000000000
C          C       0.65360   0.00000   0.65360   0.0000000000
C          C       0.65360   0.50000   0.15360   0.0000000000
C          C       0.84640   0.15360   0.00000   0.0000000000
C          C       0.84640   0.65360   0.50000   0.0000000000
C          C       0.34640   0.15360   0.50000   0.0000000000
C          C       0.34640   0.65360   0.00000   0.0000000000
C          C       0.84640   0.84640   0.00000   0.0000000000
C          C       0.84640   0.34640   0.50000   0.0000000000
C          C       0.34640   0.84640   0.50000   0.0000000000
C          C       0.34640   0.34640   0.00000   0.0000000000
C          C       0.15360   0.84640   0.00000   0.0000000000
C          C       0.15360   0.34640   0.50000   0.0000000000
C          C       0.65360   0.84640   0.50000   0.0000000000
C          C       0.65360   0.34640   0.00000   0.0000000000
C          C       0.15360   0.15360   0.00000   0.0000000000
C          C       0.15360   0.65360   0.50000   0.0000000000
C          C       0.65360   0.15360   0.50000   0.0000000000
C          C       0.65360   0.65360   0.00000   0.0000000000
C          C       0.00000   0.84640   0.15360   0.0000000000
C          C       0.00000   0.34640   0.65360   0.0000000000
C          C       0.50000   0.84640   0.65360   0.0000000000
C          C       0.50000   0.34640   0.15360   0.0000000000
C          C       0.00000   0.84640   0.84640   0.0000000000
C          C       0.00000   0.34640   0.34640   0.0000000000
C          C       0.50000   0.84640   0.34640   0.0000000000
C          C       0.50000   0.34640   0.84640   0.0000000000
C          C       0.00000   0.15360   0.84640   0.0000000000
C          C       0.00000   0.65360   0.34640   0.0000000000
C          C       0.50000   0.15360   0.34640   0.0000000000
C          C       0.50000   0.65360   0.84640   0.0000000000
C          C       0.00000   0.15360   0.15360   0.0000000000
C          C       0.00000   0.65360   0.65360   0.0000000000
C          C       0.50000   0.15360   0.65360   0.0000000000
C          C       0.50000   0.65360   0.15360   0.0000000000
C          C       0.20500   0.00000   0.20500   0.0000000000
C          C       0.20500   0.50000   0.70500   0.0000000000
C          C       0.70500   0.00000   0.70500   0.0000000000
C          C       0.70500   0.50000   0.20500   0.0000000000
C          C       0.79500   0.00000   0.20500   0.0000000000
C          C       0.79500   0.50000   0.70500   0.0000000000
C          C       0.29500   0.00000   0.70500   0.0000000000
C          C       0.29500   0.50000   0.20500   0.0000000000
C          C       0.79500   0.00000   0.79500   0.0000000000
C          C       0.79500   0.50000   0.29500   0.0000000000
C          C       0.29500   0.00000   0.29500   0.0000000000
C          C       0.29500   0.50000   0.79500   0.0000000000
C          C       0.20500   0.00000   0.79500   0.0000000000
C          C       0.20500   0.50000   0.29500   0.0000000000
C          C       0.70500   0.00000   0.29500   0.0000000000
C          C       0.70500   0.50000   0.79500   0.0000000000
C          C       0.20500   0.20500   0.00000   0.0000000000
C          C       0.20500   0.70500   0.50000   0.0000000000
C          C       0.70500   0.20500   0.50000   0.0000000000
C          C       0.70500   0.70500   0.00000   0.0000000000
C          C       0.20500   0.79500   0.00000   0.0000000000
C          C       0.20500   0.29500   0.50000   0.0000000000
C          C       0.70500   0.79500   0.50000   0.0000000000
C          C       0.70500   0.29500   0.00000   0.0000000000
C          C       0.79500   0.79500   0.00000   0.0000000000
C          C       0.79500   0.29500   0.50000   0.0000000000
C          C       0.29500   0.79500   0.50000   0.0000000000
C          C       0.29500   0.29500   0.00000   0.0000000000
C          C       0.79500   0.20500   0.00000   0.0000000000
C          C       0.79500   0.70500   0.50000   0.0000000000
C          C       0.29500   0.20500   0.50000   0.0000000000
C          C       0.29500   0.70500   0.00000   0.0000000000
C          C       0.00000   0.20500   0.20500   0.0000000000
C          C       0.00000   0.70500   0.70500   0.0000000000
C          C       0.50000   0.20500   0.70500   0.0000000000
C          C       0.50000   0.70500   0.20500   0.0000000000
C          C       0.00000   0.20500   0.79500   0.0000000000
C          C       0.00000   0.70500   0.29500   0.0000000000
C          C       0.50000   0.20500   0.29500   0.0000000000
C          C       0.50000   0.70500   0.79500   0.0000000000
C          C       0.00000   0.79500   0.79500   0.0000000000
C          C       0.00000   0.29500   0.29500   0.0000000000
C          C       0.50000   0.79500   0.29500   0.0000000000
C          C       0.50000   0.29500   0.79500   0.0000000000
C          C       0.00000   0.79500   0.20500   0.0000000000
C          C       0.00000   0.29500   0.70500   0.0000000000
C          C       0.50000   0.79500   0.70500   0.0000000000
C          C       0.50000   0.29500   0.20500   0.0000000000
