data_image0
_cell_length_a       20.8507
_cell_length_b       20.8507
_cell_length_c       20.8507
_cell_angle_alpha    90
_cell_angle_beta     90
_cell_angle_gamma    90

_symmetry_space_group_name_H-M    "P 1"
_symmetry_int_tables_number       1

loop_
  _symmetry_equiv_pos_as_xyz
  'x, y, z'

loop_
  _atom_site_label
  _atom_site_occupancy
  _atom_site_fract_x
  _atom_site_fract_y
  _atom_site_fract_z
  _atom_site_thermal_displace_type
  _atom_site_B_iso_or_equiv
  _atom_site_type_symbol
  Zr1      1.0000 0.11760  0.00000  0.00000  Biso   1.000  Zr
  O1       1.0000 0.16990  0.00000  0.09030  Biso   1.000  O
  O2       1.0000 0.06410  0.06410  0.06410  Biso   1.000  O
  C1       1.0000 0.15040  0.00000  0.15040  Biso   1.000  C
  C2       1.0000 0.20120  0.00000  0.20120  Biso   1.000  C
  C3       1.0000 0.26030  0.02800  0.18900  Biso   1.000  C
  C4       1.0000 0.27240  0.05600  0.12960  Biso   1.000  C
  C5       1.0000 0.33170  0.08400  0.11740  Biso   1.000  C
  O3       1.0000 0.09030  0.00000  0.16990  Biso   1.000  O
  C6       1.0000 0.18900  0.97200  0.26030  Biso   1.000  C
  C7       1.0000 0.12960  0.94400  0.27240  Biso   1.000  C
  C8       1.0000 0.11740  0.91600  0.33170  Biso   1.000  C
  C9       1.0000 0.26030  0.97200  0.18900  Biso   1.000  C
  C10      1.0000 0.27240  0.94400  0.12960  Biso   1.000  C
  C11      1.0000 0.33170  0.91600  0.11740  Biso   1.000  C
  O4       1.0000 0.16990  0.09030  0.00000  Biso   1.000  O
  C12      1.0000 0.15040  0.15040  0.00000  Biso   1.000  C
  C13      1.0000 0.20120  0.20120  0.00000  Biso   1.000  C
  C14      1.0000 0.26030  0.18900  0.02800  Biso   1.000  C
  C15      1.0000 0.27240  0.12960  0.05600  Biso   1.000  C
  C16      1.0000 0.33170  0.11740  0.08400  Biso   1.000  C
  C17      1.0000 0.18900  0.02800  0.26030  Biso   1.000  C
  C18      1.0000 0.12960  0.05600  0.27240  Biso   1.000  C
  C19      1.0000 0.11740  0.08400  0.33170  Biso   1.000  C
  O5       1.0000 0.40970  0.00000  0.33010  Biso   1.000  O
  C20      1.0000 0.34960  0.00000  0.34960  Biso   1.000  C
  C21      1.0000 0.29880  0.00000  0.29880  Biso   1.000  C
  C22      1.0000 0.31100  0.97200  0.23970  Biso   1.000  C
  C23      1.0000 0.37040  0.94400  0.22760  Biso   1.000  C
  C24      1.0000 0.38260  0.91600  0.16830  Biso   1.000  C
  C25      1.0000 0.31100  0.02800  0.23970  Biso   1.000  C
  C26      1.0000 0.37040  0.05600  0.22760  Biso   1.000  C
  C27      1.0000 0.38260  0.08400  0.16830  Biso   1.000  C
  C28      1.0000 0.26030  0.18900  0.97200  Biso   1.000  C
  C29      1.0000 0.27240  0.12960  0.94400  Biso   1.000  C
  C30      1.0000 0.33170  0.11740  0.91600  Biso   1.000  C
  O6       1.0000 0.16990  0.90970  0.00000  Biso   1.000  O
  C31      1.0000 0.15040  0.84960  0.00000  Biso   1.000  C
  C32      1.0000 0.20120  0.79880  0.00000  Biso   1.000  C
  C33      1.0000 0.26030  0.81100  0.02800  Biso   1.000  C
  C34      1.0000 0.27240  0.87040  0.05600  Biso   1.000  C
  C35      1.0000 0.33170  0.88260  0.08400  Biso   1.000  C
  C36      1.0000 0.26030  0.81100  0.97200  Biso   1.000  C
  C37      1.0000 0.27240  0.87040  0.94400  Biso   1.000  C
  C38      1.0000 0.33170  0.88260  0.91600  Biso   1.000  C
  O7       1.0000 0.16990  0.00000  0.90970  Biso   1.000  O
  C39      1.0000 0.15040  0.00000  0.84960  Biso   1.000  C
  C40      1.0000 0.20120  0.00000  0.79880  Biso   1.000  C
  C41      1.0000 0.26030  0.97200  0.81100  Biso   1.000  C
  C42      1.0000 0.27240  0.94400  0.87040  Biso   1.000  C
  C43      1.0000 0.33170  0.91600  0.88260  Biso   1.000  C
  C44      1.0000 0.26030  0.02800  0.81100  Biso   1.000  C
  C45      1.0000 0.27240  0.05600  0.87040  Biso   1.000  C
  C46      1.0000 0.33170  0.08400  0.88260  Biso   1.000  C
  O8       1.0000 0.06410  0.93590  0.93590  Biso   1.000  O
  O9       1.0000 0.09030  0.00000  0.83010  Biso   1.000  O
  C47      1.0000 0.18900  0.02800  0.73970  Biso   1.000  C
  C48      1.0000 0.12960  0.05600  0.72760  Biso   1.000  C
  C49      1.0000 0.11740  0.08400  0.66830  Biso   1.000  C
  C50      1.0000 0.18900  0.97200  0.73970  Biso   1.000  C
  C51      1.0000 0.12960  0.94400  0.72760  Biso   1.000  C
  C52      1.0000 0.11740  0.91600  0.66830  Biso   1.000  C
  O10      1.0000 0.40970  0.00000  0.66990  Biso   1.000  O
  C53      1.0000 0.34960  0.00000  0.65040  Biso   1.000  C
  C54      1.0000 0.29880  0.00000  0.70120  Biso   1.000  C
  C55      1.0000 0.31100  0.02800  0.76030  Biso   1.000  C
  C56      1.0000 0.37040  0.05600  0.77240  Biso   1.000  C
  C57      1.0000 0.38260  0.08400  0.83170  Biso   1.000  C
  C58      1.0000 0.31100  0.97200  0.76030  Biso   1.000  C
  C59      1.0000 0.37040  0.94400  0.77240  Biso   1.000  C
  C60      1.0000 0.38260  0.91600  0.83170  Biso   1.000  C
  Zr2      1.0000 0.00000  0.11760  0.00000  Biso   1.000  Zr
  O11      1.0000 0.09030  0.16990  0.00000  Biso   1.000  O
  C61      1.0000 0.18900  0.26030  0.02800  Biso   1.000  C
  C62      1.0000 0.12960  0.27240  0.05600  Biso   1.000  C
  C63      1.0000 0.11740  0.33170  0.08400  Biso   1.000  C
  C64      1.0000 0.18900  0.26030  0.97200  Biso   1.000  C
  C65      1.0000 0.12960  0.27240  0.94400  Biso   1.000  C
  C66      1.0000 0.11740  0.33170  0.91600  Biso   1.000  C
  O12      1.0000 0.00000  0.16990  0.09030  Biso   1.000  O
  C67      1.0000 0.00000  0.15040  0.15040  Biso   1.000  C
  C68      1.0000 0.00000  0.20120  0.20120  Biso   1.000  C
  C69      1.0000 0.02800  0.26030  0.18900  Biso   1.000  C
  C70      1.0000 0.05600  0.27240  0.12960  Biso   1.000  C
  C71      1.0000 0.08400  0.33170  0.11740  Biso   1.000  C
  O13      1.0000 0.33010  0.40970  0.00000  Biso   1.000  O
  C72      1.0000 0.34960  0.34960  0.00000  Biso   1.000  C
  C73      1.0000 0.29880  0.29880  0.00000  Biso   1.000  C
  C74      1.0000 0.23970  0.31100  0.97200  Biso   1.000  C
  C75      1.0000 0.22760  0.37040  0.94400  Biso   1.000  C
  C76      1.0000 0.16830  0.38260  0.91600  Biso   1.000  C
  C77      1.0000 0.23970  0.31100  0.02800  Biso   1.000  C
  C78      1.0000 0.22760  0.37040  0.05600  Biso   1.000  C
  C79      1.0000 0.16830  0.38260  0.08400  Biso   1.000  C
  C80      1.0000 0.97200  0.26030  0.18900  Biso   1.000  C
  C81      1.0000 0.94400  0.27240  0.12960  Biso   1.000  C
  C82      1.0000 0.91600  0.33170  0.11740  Biso   1.000  C
  O14      1.0000 0.00000  0.16990  0.90970  Biso   1.000  O
  C83      1.0000 0.00000  0.15040  0.84960  Biso   1.000  C
  C84      1.0000 0.00000  0.20120  0.79880  Biso   1.000  C
  C85      1.0000 0.02800  0.26030  0.81100  Biso   1.000  C
  C86      1.0000 0.05600  0.27240  0.87040  Biso   1.000  C
  C87      1.0000 0.08400  0.33170  0.88260  Biso   1.000  C
  C88      1.0000 0.97200  0.26030  0.81100  Biso   1.000  C
  C89      1.0000 0.94400  0.27240  0.87040  Biso   1.000  C
  C90      1.0000 0.91600  0.33170  0.88260  Biso   1.000  C
  O15      1.0000 0.90970  0.16990  0.00000  Biso   1.000  O
  C91      1.0000 0.84960  0.15040  0.00000  Biso   1.000  C
  C92      1.0000 0.79880  0.20120  0.00000  Biso   1.000  C
  C93      1.0000 0.81100  0.26030  0.97200  Biso   1.000  C
  C94      1.0000 0.87040  0.27240  0.94400  Biso   1.000  C
  C95      1.0000 0.88260  0.33170  0.91600  Biso   1.000  C
  C96      1.0000 0.81100  0.26030  0.02800  Biso   1.000  C
  C97      1.0000 0.87040  0.27240  0.05600  Biso   1.000  C
  C98      1.0000 0.88260  0.33170  0.08400  Biso   1.000  C
  Zr3      1.0000 0.00000  0.88240  0.00000  Biso   1.000  Zr
  O16      1.0000 0.09030  0.83010  0.00000  Biso   1.000  O
  C99      1.0000 0.18900  0.73970  0.97200  Biso   1.000  C
  C100     1.0000 0.12960  0.72760  0.94400  Biso   1.000  C
  C101     1.0000 0.11740  0.66830  0.91600  Biso   1.000  C
  C102     1.0000 0.18900  0.73970  0.02800  Biso   1.000  C
  C103     1.0000 0.12960  0.72760  0.05600  Biso   1.000  C
  C104     1.0000 0.11740  0.66830  0.08400  Biso   1.000  C
  O17      1.0000 0.00000  0.83010  0.90970  Biso   1.000  O
  C105     1.0000 0.00000  0.84960  0.84960  Biso   1.000  C
  C106     1.0000 0.00000  0.79880  0.79880  Biso   1.000  C
  C107     1.0000 0.02800  0.73970  0.81100  Biso   1.000  C
  C108     1.0000 0.05600  0.72760  0.87040  Biso   1.000  C
  C109     1.0000 0.08400  0.66830  0.88260  Biso   1.000  C
  O18      1.0000 0.33010  0.59030  0.00000  Biso   1.000  O
  C110     1.0000 0.34960  0.65040  0.00000  Biso   1.000  C
  C111     1.0000 0.29880  0.70120  0.00000  Biso   1.000  C
  C112     1.0000 0.23970  0.68900  0.02800  Biso   1.000  C
  C113     1.0000 0.22760  0.62960  0.05600  Biso   1.000  C
  C114     1.0000 0.16830  0.61740  0.08400  Biso   1.000  C
  C115     1.0000 0.23970  0.68900  0.97200  Biso   1.000  C
  C116     1.0000 0.22760  0.62960  0.94400  Biso   1.000  C
  C117     1.0000 0.16830  0.61740  0.91600  Biso   1.000  C
  C118     1.0000 0.97200  0.73970  0.81100  Biso   1.000  C
  C119     1.0000 0.94400  0.72760  0.87040  Biso   1.000  C
  C120     1.0000 0.91600  0.66830  0.88260  Biso   1.000  C
  O19      1.0000 0.00000  0.83010  0.09030  Biso   1.000  O
  C121     1.0000 0.00000  0.84960  0.15040  Biso   1.000  C
  C122     1.0000 0.00000  0.79880  0.20120  Biso   1.000  C
  C123     1.0000 0.02800  0.73970  0.18900  Biso   1.000  C
  C124     1.0000 0.05600  0.72760  0.12960  Biso   1.000  C
  C125     1.0000 0.08400  0.66830  0.11740  Biso   1.000  C
  C126     1.0000 0.97200  0.73970  0.18900  Biso   1.000  C
  C127     1.0000 0.94400  0.72760  0.12960  Biso   1.000  C
  C128     1.0000 0.91600  0.66830  0.11740  Biso   1.000  C
  O20      1.0000 0.90970  0.83010  0.00000  Biso   1.000  O
  C129     1.0000 0.84960  0.84960  0.00000  Biso   1.000  C
  C130     1.0000 0.79880  0.79880  0.00000  Biso   1.000  C
  C131     1.0000 0.81100  0.73970  0.02800  Biso   1.000  C
  C132     1.0000 0.87040  0.72760  0.05600  Biso   1.000  C
  C133     1.0000 0.88260  0.66830  0.08400  Biso   1.000  C
  C134     1.0000 0.81100  0.73970  0.97200  Biso   1.000  C
  C135     1.0000 0.87040  0.72760  0.94400  Biso   1.000  C
  C136     1.0000 0.88260  0.66830  0.91600  Biso   1.000  C
  O21      1.0000 0.93590  0.93590  0.06410  Biso   1.000  O
  O22      1.0000 0.83010  0.90970  0.00000  Biso   1.000  O
  C137     1.0000 0.73970  0.81100  0.97200  Biso   1.000  C
  C138     1.0000 0.72760  0.87040  0.94400  Biso   1.000  C
  C139     1.0000 0.66830  0.88260  0.91600  Biso   1.000  C
  C140     1.0000 0.73970  0.81100  0.02800  Biso   1.000  C
  C141     1.0000 0.72760  0.87040  0.05600  Biso   1.000  C
  C142     1.0000 0.66830  0.88260  0.08400  Biso   1.000  C
  O23      1.0000 0.66990  0.59030  0.00000  Biso   1.000  O
  C143     1.0000 0.65040  0.65040  0.00000  Biso   1.000  C
  C144     1.0000 0.70120  0.70120  0.00000  Biso   1.000  C
  C145     1.0000 0.76030  0.68900  0.97200  Biso   1.000  C
  C146     1.0000 0.77240  0.62960  0.94400  Biso   1.000  C
  C147     1.0000 0.83170  0.61740  0.91600  Biso   1.000  C
  C148     1.0000 0.76030  0.68900  0.02800  Biso   1.000  C
  C149     1.0000 0.77240  0.62960  0.05600  Biso   1.000  C
  C150     1.0000 0.83170  0.61740  0.08400  Biso   1.000  C
  O24      1.0000 0.93590  0.06410  0.93590  Biso   1.000  O
  O25      1.0000 0.83010  0.09030  0.00000  Biso   1.000  O
  C151     1.0000 0.73970  0.18900  0.02800  Biso   1.000  C
  C152     1.0000 0.72760  0.12960  0.05600  Biso   1.000  C
  C153     1.0000 0.66830  0.11740  0.08400  Biso   1.000  C
  C154     1.0000 0.73970  0.18900  0.97200  Biso   1.000  C
  C155     1.0000 0.72760  0.12960  0.94400  Biso   1.000  C
  C156     1.0000 0.66830  0.11740  0.91600  Biso   1.000  C
  O26      1.0000 0.66990  0.40970  0.00000  Biso   1.000  O
  C157     1.0000 0.65040  0.34960  0.00000  Biso   1.000  C
  C158     1.0000 0.70120  0.29880  0.00000  Biso   1.000  C
  C159     1.0000 0.76030  0.31100  0.02800  Biso   1.000  C
  C160     1.0000 0.77240  0.37040  0.05600  Biso   1.000  C
  C161     1.0000 0.83170  0.38260  0.08400  Biso   1.000  C
  C162     1.0000 0.76030  0.31100  0.97200  Biso   1.000  C
  C163     1.0000 0.77240  0.37040  0.94400  Biso   1.000  C
  C164     1.0000 0.83170  0.38260  0.91600  Biso   1.000  C
  Zr4      1.0000 0.00000  0.00000  0.11760  Biso   1.000  Zr
  O27      1.0000 0.00000  0.09030  0.16990  Biso   1.000  O
  C165     1.0000 0.02800  0.18900  0.26030  Biso   1.000  C
  C166     1.0000 0.05600  0.12960  0.27240  Biso   1.000  C
  C167     1.0000 0.08400  0.11740  0.33170  Biso   1.000  C
  C168     1.0000 0.97200  0.18900  0.26030  Biso   1.000  C
  C169     1.0000 0.94400  0.12960  0.27240  Biso   1.000  C
  C170     1.0000 0.91600  0.11740  0.33170  Biso   1.000  C
  O28      1.0000 0.00000  0.33010  0.40970  Biso   1.000  O
  C171     1.0000 0.00000  0.34960  0.34960  Biso   1.000  C
  C172     1.0000 0.00000  0.29880  0.29880  Biso   1.000  C
  C173     1.0000 0.97200  0.23970  0.31100  Biso   1.000  C
  C174     1.0000 0.94400  0.22760  0.37040  Biso   1.000  C
  C175     1.0000 0.91600  0.16830  0.38260  Biso   1.000  C
  C176     1.0000 0.02800  0.23970  0.31100  Biso   1.000  C
  C177     1.0000 0.05600  0.22760  0.37040  Biso   1.000  C
  C178     1.0000 0.08400  0.16830  0.38260  Biso   1.000  C
  O29      1.0000 0.90970  0.00000  0.16990  Biso   1.000  O
  C179     1.0000 0.84960  0.00000  0.15040  Biso   1.000  C
  C180     1.0000 0.79880  0.00000  0.20120  Biso   1.000  C
  C181     1.0000 0.81100  0.02800  0.26030  Biso   1.000  C
  C182     1.0000 0.87040  0.05600  0.27240  Biso   1.000  C
  C183     1.0000 0.88260  0.08400  0.33170  Biso   1.000  C
  C184     1.0000 0.81100  0.97200  0.26030  Biso   1.000  C
  C185     1.0000 0.87040  0.94400  0.27240  Biso   1.000  C
  C186     1.0000 0.88260  0.91600  0.33170  Biso   1.000  C
  O30      1.0000 0.00000  0.90970  0.16990  Biso   1.000  O
  C187     1.0000 0.97200  0.81100  0.26030  Biso   1.000  C
  C188     1.0000 0.94400  0.87040  0.27240  Biso   1.000  C
  C189     1.0000 0.91600  0.88260  0.33170  Biso   1.000  C
  C190     1.0000 0.02800  0.81100  0.26030  Biso   1.000  C
  C191     1.0000 0.05600  0.87040  0.27240  Biso   1.000  C
  C192     1.0000 0.08400  0.88260  0.33170  Biso   1.000  C
  Zr5      1.0000 0.00000  0.00000  0.88240  Biso   1.000  Zr
  O31      1.0000 0.00000  0.09030  0.83010  Biso   1.000  O
  C193     1.0000 0.97200  0.18900  0.73970  Biso   1.000  C
  C194     1.0000 0.94400  0.12960  0.72760  Biso   1.000  C
  C195     1.0000 0.91600  0.11740  0.66830  Biso   1.000  C
  C196     1.0000 0.02800  0.18900  0.73970  Biso   1.000  C
  C197     1.0000 0.05600  0.12960  0.72760  Biso   1.000  C
  C198     1.0000 0.08400  0.11740  0.66830  Biso   1.000  C
  O32      1.0000 0.90970  0.00000  0.83010  Biso   1.000  O
  C199     1.0000 0.84960  0.00000  0.84960  Biso   1.000  C
  C200     1.0000 0.79880  0.00000  0.79880  Biso   1.000  C
  C201     1.0000 0.81100  0.02800  0.73970  Biso   1.000  C
  C202     1.0000 0.87040  0.05600  0.72760  Biso   1.000  C
  C203     1.0000 0.88260  0.08400  0.66830  Biso   1.000  C
  O33      1.0000 0.00000  0.33010  0.59030  Biso   1.000  O
  C204     1.0000 0.00000  0.34960  0.65040  Biso   1.000  C
  C205     1.0000 0.00000  0.29880  0.70120  Biso   1.000  C
  C206     1.0000 0.02800  0.23970  0.68900  Biso   1.000  C
  C207     1.0000 0.05600  0.22760  0.62960  Biso   1.000  C
  C208     1.0000 0.08400  0.16830  0.61740  Biso   1.000  C
  C209     1.0000 0.97200  0.23970  0.68900  Biso   1.000  C
  C210     1.0000 0.94400  0.22760  0.62960  Biso   1.000  C
  C211     1.0000 0.91600  0.16830  0.61740  Biso   1.000  C
  C212     1.0000 0.81100  0.97200  0.73970  Biso   1.000  C
  C213     1.0000 0.87040  0.94400  0.72760  Biso   1.000  C
  C214     1.0000 0.88260  0.91600  0.66830  Biso   1.000  C
  O34      1.0000 0.00000  0.90970  0.83010  Biso   1.000  O
  C215     1.0000 0.02800  0.81100  0.73970  Biso   1.000  C
  C216     1.0000 0.05600  0.87040  0.72760  Biso   1.000  C
  C217     1.0000 0.08400  0.88260  0.66830  Biso   1.000  C
  C218     1.0000 0.97200  0.81100  0.73970  Biso   1.000  C
  C219     1.0000 0.94400  0.87040  0.72760  Biso   1.000  C
  C220     1.0000 0.91600  0.88260  0.66830  Biso   1.000  C
  O35      1.0000 0.00000  0.66990  0.59030  Biso   1.000  O
  C221     1.0000 0.00000  0.65040  0.65040  Biso   1.000  C
  C222     1.0000 0.00000  0.70120  0.70120  Biso   1.000  C
  C223     1.0000 0.97200  0.76030  0.68900  Biso   1.000  C
  C224     1.0000 0.94400  0.77240  0.62960  Biso   1.000  C
  C225     1.0000 0.91600  0.83170  0.61740  Biso   1.000  C
  C226     1.0000 0.02800  0.76030  0.68900  Biso   1.000  C
  C227     1.0000 0.05600  0.77240  0.62960  Biso   1.000  C
  C228     1.0000 0.08400  0.83170  0.61740  Biso   1.000  C
  O36      1.0000 0.00000  0.66990  0.40970  Biso   1.000  O
  C229     1.0000 0.00000  0.65040  0.34960  Biso   1.000  C
  C230     1.0000 0.00000  0.70120  0.29880  Biso   1.000  C
  C231     1.0000 0.02800  0.76030  0.31100  Biso   1.000  C
  C232     1.0000 0.05600  0.77240  0.37040  Biso   1.000  C
  C233     1.0000 0.08400  0.83170  0.38260  Biso   1.000  C
  C234     1.0000 0.97200  0.76030  0.31100  Biso   1.000  C
  C235     1.0000 0.94400  0.77240  0.37040  Biso   1.000  C
  C236     1.0000 0.91600  0.83170  0.38260  Biso   1.000  C
  O37      1.0000 0.06410  0.06410  0.93590  Biso   1.000  O
  O38      1.0000 0.00000  0.40970  0.66990  Biso   1.000  O
  C237     1.0000 0.97200  0.31100  0.76030  Biso   1.000  C
  C238     1.0000 0.94400  0.37040  0.77240  Biso   1.000  C
  C239     1.0000 0.91600  0.38260  0.83170  Biso   1.000  C
  C240     1.0000 0.02800  0.31100  0.76030  Biso   1.000  C
  C241     1.0000 0.05600  0.37040  0.77240  Biso   1.000  C
  C242     1.0000 0.08400  0.38260  0.83170  Biso   1.000  C
  O39      1.0000 0.93590  0.93590  0.93590  Biso   1.000  O
  O40      1.0000 0.00000  0.59030  0.66990  Biso   1.000  O
  C243     1.0000 0.02800  0.68900  0.76030  Biso   1.000  C
  C244     1.0000 0.05600  0.62960  0.77240  Biso   1.000  C
  C245     1.0000 0.08400  0.61740  0.83170  Biso   1.000  C
  C246     1.0000 0.97200  0.68900  0.76030  Biso   1.000  C
  C247     1.0000 0.94400  0.62960  0.77240  Biso   1.000  C
  C248     1.0000 0.91600  0.61740  0.83170  Biso   1.000  C
  O41      1.0000 0.06410  0.93590  0.06410  Biso   1.000  O
  O42      1.0000 0.00000  0.59030  0.33010  Biso   1.000  O
  C249     1.0000 0.97200  0.68900  0.23970  Biso   1.000  C
  C250     1.0000 0.94400  0.62960  0.22760  Biso   1.000  C
  C251     1.0000 0.91600  0.61740  0.16830  Biso   1.000  C
  C252     1.0000 0.02800  0.68900  0.23970  Biso   1.000  C
  C253     1.0000 0.05600  0.62960  0.22760  Biso   1.000  C
  C254     1.0000 0.08400  0.61740  0.16830  Biso   1.000  C
  O43      1.0000 0.93590  0.06410  0.06410  Biso   1.000  O
  O44      1.0000 0.00000  0.40970  0.33010  Biso   1.000  O
  C255     1.0000 0.02800  0.31100  0.23970  Biso   1.000  C
  C256     1.0000 0.05600  0.37040  0.22760  Biso   1.000  C
  C257     1.0000 0.08400  0.38260  0.16830  Biso   1.000  C
  C258     1.0000 0.97200  0.31100  0.23970  Biso   1.000  C
  C259     1.0000 0.94400  0.37040  0.22760  Biso   1.000  C
  C260     1.0000 0.91600  0.38260  0.16830  Biso   1.000  C
  O45      1.0000 0.40970  0.33010  0.00000  Biso   1.000  O
  C261     1.0000 0.31100  0.23970  0.02800  Biso   1.000  C
  C262     1.0000 0.37040  0.22760  0.05600  Biso   1.000  C
  C263     1.0000 0.38260  0.16830  0.08400  Biso   1.000  C
  C264     1.0000 0.31100  0.23970  0.97200  Biso   1.000  C
  C265     1.0000 0.37040  0.22760  0.94400  Biso   1.000  C
  C266     1.0000 0.38260  0.16830  0.91600  Biso   1.000  C
  Zr6      1.0000 0.88240  0.00000  0.00000  Biso   1.000  Zr
  O46      1.0000 0.83010  0.00000  0.09030  Biso   1.000  O
  C267     1.0000 0.73970  0.02800  0.18900  Biso   1.000  C
  C268     1.0000 0.72760  0.05600  0.12960  Biso   1.000  C
  C269     1.0000 0.66830  0.08400  0.11740  Biso   1.000  C
  O47      1.0000 0.59030  0.33010  0.00000  Biso   1.000  O
  C270     1.0000 0.68900  0.23970  0.97200  Biso   1.000  C
  C271     1.0000 0.62960  0.22760  0.94400  Biso   1.000  C
  C272     1.0000 0.61740  0.16830  0.91600  Biso   1.000  C
  C273     1.0000 0.68900  0.23970  0.02800  Biso   1.000  C
  C274     1.0000 0.62960  0.22760  0.05600  Biso   1.000  C
  C275     1.0000 0.61740  0.16830  0.08400  Biso   1.000  C
  C276     1.0000 0.73970  0.97200  0.18900  Biso   1.000  C
  C277     1.0000 0.72760  0.94400  0.12960  Biso   1.000  C
  C278     1.0000 0.66830  0.91600  0.11740  Biso   1.000  C
  O48      1.0000 0.83010  0.00000  0.90970  Biso   1.000  O
  C279     1.0000 0.73970  0.02800  0.81100  Biso   1.000  C
  C280     1.0000 0.72760  0.05600  0.87040  Biso   1.000  C
  C281     1.0000 0.66830  0.08400  0.88260  Biso   1.000  C
  C282     1.0000 0.73970  0.97200  0.81100  Biso   1.000  C
  C283     1.0000 0.72760  0.94400  0.87040  Biso   1.000  C
  C284     1.0000 0.66830  0.91600  0.88260  Biso   1.000  C
  O49      1.0000 0.59030  0.66990  0.00000  Biso   1.000  O
  C285     1.0000 0.68900  0.76030  0.02800  Biso   1.000  C
  C286     1.0000 0.62960  0.77240  0.05600  Biso   1.000  C
  C287     1.0000 0.61740  0.83170  0.08400  Biso   1.000  C
  C288     1.0000 0.68900  0.76030  0.97200  Biso   1.000  C
  C289     1.0000 0.62960  0.77240  0.94400  Biso   1.000  C
  C290     1.0000 0.61740  0.83170  0.91600  Biso   1.000  C
  O50      1.0000 0.40970  0.66990  0.00000  Biso   1.000  O
  C291     1.0000 0.31100  0.76030  0.97200  Biso   1.000  C
  C292     1.0000 0.37040  0.77240  0.94400  Biso   1.000  C
  C293     1.0000 0.38260  0.83170  0.91600  Biso   1.000  C
  C294     1.0000 0.31100  0.76030  0.02800  Biso   1.000  C
  C295     1.0000 0.37040  0.77240  0.05600  Biso   1.000  C
  C296     1.0000 0.38260  0.83170  0.08400  Biso   1.000  C
  O51      1.0000 0.33010  0.00000  0.59030  Biso   1.000  O
  C297     1.0000 0.23970  0.97200  0.68900  Biso   1.000  C
  C298     1.0000 0.22760  0.94400  0.62960  Biso   1.000  C
  C299     1.0000 0.16830  0.91600  0.61740  Biso   1.000  C
  C300     1.0000 0.23970  0.02800  0.68900  Biso   1.000  C
  C301     1.0000 0.22760  0.05600  0.62960  Biso   1.000  C
  C302     1.0000 0.16830  0.08400  0.61740  Biso   1.000  C
  O52      1.0000 0.33010  0.00000  0.40970  Biso   1.000  O
  C303     1.0000 0.23970  0.02800  0.31100  Biso   1.000  C
  C304     1.0000 0.22760  0.05600  0.37040  Biso   1.000  C
  C305     1.0000 0.16830  0.08400  0.38260  Biso   1.000  C
  C306     1.0000 0.23970  0.97200  0.31100  Biso   1.000  C
  C307     1.0000 0.22760  0.94400  0.37040  Biso   1.000  C
  C308     1.0000 0.16830  0.91600  0.38260  Biso   1.000  C
  O53      1.0000 0.66990  0.00000  0.40970  Biso   1.000  O
  C309     1.0000 0.65040  0.00000  0.34960  Biso   1.000  C
  C310     1.0000 0.70120  0.00000  0.29880  Biso   1.000  C
  C311     1.0000 0.76030  0.97200  0.31100  Biso   1.000  C
  C312     1.0000 0.77240  0.94400  0.37040  Biso   1.000  C
  C313     1.0000 0.83170  0.91600  0.38260  Biso   1.000  C
  C314     1.0000 0.76030  0.02800  0.31100  Biso   1.000  C
  C315     1.0000 0.77240  0.05600  0.37040  Biso   1.000  C
  C316     1.0000 0.83170  0.08400  0.38260  Biso   1.000  C
  O54      1.0000 0.66990  0.00000  0.59030  Biso   1.000  O
  C317     1.0000 0.65040  0.00000  0.65040  Biso   1.000  C
  C318     1.0000 0.70120  0.00000  0.70120  Biso   1.000  C
  C319     1.0000 0.76030  0.02800  0.68900  Biso   1.000  C
  C320     1.0000 0.77240  0.05600  0.62960  Biso   1.000  C
  C321     1.0000 0.83170  0.08400  0.61740  Biso   1.000  C
  C322     1.0000 0.76030  0.97200  0.68900  Biso   1.000  C
  C323     1.0000 0.77240  0.94400  0.62960  Biso   1.000  C
  C324     1.0000 0.83170  0.91600  0.61740  Biso   1.000  C
  O55      1.0000 0.59030  0.00000  0.66990  Biso   1.000  O
  C325     1.0000 0.68900  0.02800  0.76030  Biso   1.000  C
  C326     1.0000 0.62960  0.05600  0.77240  Biso   1.000  C
  C327     1.0000 0.61740  0.08400  0.83170  Biso   1.000  C
  C328     1.0000 0.68900  0.97200  0.76030  Biso   1.000  C
  C329     1.0000 0.62960  0.94400  0.77240  Biso   1.000  C
  C330     1.0000 0.61740  0.91600  0.83170  Biso   1.000  C
  O56      1.0000 0.59030  0.00000  0.33010  Biso   1.000  O
  C331     1.0000 0.68900  0.97200  0.23970  Biso   1.000  C
  C332     1.0000 0.62960  0.94400  0.22760  Biso   1.000  C
  C333     1.0000 0.61740  0.91600  0.16830  Biso   1.000  C
  C334     1.0000 0.68900  0.02800  0.23970  Biso   1.000  C
  C335     1.0000 0.62960  0.05600  0.22760  Biso   1.000  C
  C336     1.0000 0.61740  0.08400  0.16830  Biso   1.000  C
  Zr7      1.0000 0.00000  0.61760  0.50000  Biso   1.000  Zr
  Zr8      1.0000 0.00000  0.38240  0.50000  Biso   1.000  Zr
  Zr9      1.0000 0.00000  0.50000  0.61760  Biso   1.000  Zr
  Zr10     1.0000 0.00000  0.50000  0.38240  Biso   1.000  Zr
  Zr11     1.0000 0.61760  0.00000  0.50000  Biso   1.000  Zr
  Zr12     1.0000 0.38240  0.00000  0.50000  Biso   1.000  Zr
  Zr13     1.0000 0.50000  0.00000  0.61760  Biso   1.000  Zr
  Zr14     1.0000 0.50000  0.00000  0.38240  Biso   1.000  Zr
  Zr15     1.0000 0.61760  0.50000  0.00000  Biso   1.000  Zr
  Zr16     1.0000 0.38240  0.50000  0.00000  Biso   1.000  Zr
  Zr17     1.0000 0.50000  0.61760  0.00000  Biso   1.000  Zr
  Zr18     1.0000 0.50000  0.38240  0.00000  Biso   1.000  Zr
  C337     1.0000 0.11740  0.83170  0.58400  Biso   1.000  C
  C338     1.0000 0.11740  0.16830  0.41600  Biso   1.000  C
  C339     1.0000 0.88260  0.16830  0.58400  Biso   1.000  C
  C340     1.0000 0.88260  0.83170  0.41600  Biso   1.000  C
  C341     1.0000 0.11740  0.58400  0.16830  Biso   1.000  C
  C342     1.0000 0.11740  0.41600  0.83170  Biso   1.000  C
  C343     1.0000 0.88260  0.58400  0.83170  Biso   1.000  C
  C344     1.0000 0.88260  0.41600  0.16830  Biso   1.000  C
  C345     1.0000 0.88260  0.16830  0.41600  Biso   1.000  C
  C346     1.0000 0.88260  0.83170  0.58400  Biso   1.000  C
  C347     1.0000 0.11740  0.83170  0.41600  Biso   1.000  C
  C348     1.0000 0.11740  0.16830  0.58400  Biso   1.000  C
  C349     1.0000 0.88260  0.41600  0.83170  Biso   1.000  C
  C350     1.0000 0.88260  0.58400  0.16830  Biso   1.000  C
  C351     1.0000 0.11740  0.41600  0.16830  Biso   1.000  C
  C352     1.0000 0.11740  0.58400  0.83170  Biso   1.000  C
  C353     1.0000 0.58400  0.11740  0.83170  Biso   1.000  C
  C354     1.0000 0.41600  0.11740  0.16830  Biso   1.000  C
  C355     1.0000 0.58400  0.88260  0.16830  Biso   1.000  C
  C356     1.0000 0.41600  0.88260  0.83170  Biso   1.000  C
  C357     1.0000 0.83170  0.11740  0.41600  Biso   1.000  C
  C358     1.0000 0.16830  0.11740  0.58400  Biso   1.000  C
  C359     1.0000 0.16830  0.88260  0.41600  Biso   1.000  C
  C360     1.0000 0.83170  0.88260  0.58400  Biso   1.000  C
  C361     1.0000 0.41600  0.88260  0.16830  Biso   1.000  C
  C362     1.0000 0.58400  0.88260  0.83170  Biso   1.000  C
  C363     1.0000 0.41600  0.11740  0.83170  Biso   1.000  C
  C364     1.0000 0.58400  0.11740  0.16830  Biso   1.000  C
  C365     1.0000 0.16830  0.88260  0.58400  Biso   1.000  C
  C366     1.0000 0.83170  0.88260  0.41600  Biso   1.000  C
  C367     1.0000 0.83170  0.11740  0.58400  Biso   1.000  C
  C368     1.0000 0.16830  0.11740  0.41600  Biso   1.000  C
  C369     1.0000 0.83170  0.58400  0.11740  Biso   1.000  C
  C370     1.0000 0.16830  0.41600  0.11740  Biso   1.000  C
  C371     1.0000 0.16830  0.58400  0.88260  Biso   1.000  C
  C372     1.0000 0.83170  0.41600  0.88260  Biso   1.000  C
  C373     1.0000 0.58400  0.83170  0.88260  Biso   1.000  C
  C374     1.0000 0.41600  0.16830  0.88260  Biso   1.000  C
  C375     1.0000 0.58400  0.16830  0.11740  Biso   1.000  C
  C376     1.0000 0.41600  0.83170  0.11740  Biso   1.000  C
  C377     1.0000 0.16830  0.41600  0.88260  Biso   1.000  C
  C378     1.0000 0.83170  0.58400  0.88260  Biso   1.000  C
  C379     1.0000 0.83170  0.41600  0.11740  Biso   1.000  C
  C380     1.0000 0.16830  0.58400  0.11740  Biso   1.000  C
  C381     1.0000 0.41600  0.16830  0.11740  Biso   1.000  C
  C382     1.0000 0.58400  0.83170  0.11740  Biso   1.000  C
  C383     1.0000 0.41600  0.83170  0.88260  Biso   1.000  C
  C384     1.0000 0.58400  0.16830  0.88260  Biso   1.000  C
  H1       1.0000 0.23645  0.09329  0.12290  Biso   1.000  H
  H2       1.0000 0.26567  0.01868  0.09369  Biso   1.000  H
  H3       1.0000 0.12290  0.90671  0.23645  Biso   1.000  H
  H4       1.0000 0.09369  0.98132  0.26567  Biso   1.000  H
  H5       1.0000 0.26567  0.98132  0.09369  Biso   1.000  H
  H6       1.0000 0.23645  0.90671  0.12290  Biso   1.000  H
  H7       1.0000 0.26567  0.09369  0.01868  Biso   1.000  H
  H8       1.0000 0.23645  0.12290  0.09329  Biso   1.000  H
  H9       1.0000 0.09369  0.01868  0.26567  Biso   1.000  H
  H10      1.0000 0.12290  0.09329  0.23645  Biso   1.000  H
  H11      1.0000 0.37710  0.90671  0.26355  Biso   1.000  H
  H12      1.0000 0.40631  0.98132  0.23433  Biso   1.000  H
  H13      1.0000 0.40631  0.01868  0.23433  Biso   1.000  H
  H14      1.0000 0.37710  0.09329  0.26355  Biso   1.000  H
  H15      1.0000 0.23645  0.12290  0.90671  Biso   1.000  H
  H16      1.0000 0.26567  0.09369  0.98132  Biso   1.000  H
  H17      1.0000 0.23645  0.87710  0.09329  Biso   1.000  H
  H18      1.0000 0.26567  0.90631  0.01868  Biso   1.000  H
  H19      1.0000 0.26567  0.90631  0.98132  Biso   1.000  H
  H20      1.0000 0.23645  0.87710  0.90671  Biso   1.000  H
  H21      1.0000 0.23645  0.90671  0.87710  Biso   1.000  H
  H22      1.0000 0.26567  0.98132  0.90631  Biso   1.000  H
  H23      1.0000 0.26567  0.01868  0.90631  Biso   1.000  H
  H24      1.0000 0.23645  0.09329  0.87710  Biso   1.000  H
  H25      1.0000 0.98132  0.26567  0.90631  Biso   1.000  H
  H26      1.0000 0.90671  0.23645  0.87710  Biso   1.000  H
  H27      1.0000 0.73433  0.90631  0.01868  Biso   1.000  H
  H28      1.0000 0.76355  0.87710  0.09329  Biso   1.000  H
  H29      1.0000 0.73645  0.62290  0.90671  Biso   1.000  H
  H30      1.0000 0.76567  0.59369  0.98132  Biso   1.000  H
  H31      1.0000 0.87710  0.76355  0.09329  Biso   1.000  H
  H32      1.0000 0.90631  0.73433  0.01868  Biso   1.000  H
  H33      1.0000 0.90631  0.73433  0.98132  Biso   1.000  H
  H34      1.0000 0.87710  0.76355  0.90671  Biso   1.000  H
  H35      1.0000 0.87710  0.23645  0.90671  Biso   1.000  H
  H36      1.0000 0.90631  0.26567  0.98132  Biso   1.000  H
  H37      1.0000 0.90631  0.26567  0.01868  Biso   1.000  H
  H38      1.0000 0.87710  0.23645  0.09329  Biso   1.000  H
  H39      1.0000 0.90671  0.12290  0.76355  Biso   1.000  H
  H40      1.0000 0.98132  0.09369  0.73433  Biso   1.000  H
  H41      1.0000 0.01868  0.09369  0.73433  Biso   1.000  H
  H42      1.0000 0.09329  0.12290  0.76355  Biso   1.000  H
  H43      1.0000 0.90631  0.01868  0.73433  Biso   1.000  H
  H44      1.0000 0.87710  0.09329  0.76355  Biso   1.000  H
  H45      1.0000 0.12290  0.23645  0.09329  Biso   1.000  H
  H46      1.0000 0.09369  0.26567  0.01868  Biso   1.000  H
  H47      1.0000 0.23433  0.40631  0.01868  Biso   1.000  H
  H48      1.0000 0.26355  0.37710  0.09329  Biso   1.000  H
  H49      1.0000 0.90671  0.23645  0.12290  Biso   1.000  H
  H50      1.0000 0.98132  0.26567  0.09369  Biso   1.000  H
  H51      1.0000 0.26355  0.62290  0.09329  Biso   1.000  H
  H52      1.0000 0.23433  0.59369  0.01868  Biso   1.000  H
  H53      1.0000 0.90671  0.73645  0.62290  Biso   1.000  H
  H54      1.0000 0.98132  0.76567  0.59369  Biso   1.000  H
  H55      1.0000 0.09329  0.23645  0.87710  Biso   1.000  H
  H56      1.0000 0.01868  0.26567  0.90631  Biso   1.000  H
  H57      1.0000 0.09369  0.73433  0.01868  Biso   1.000  H
  H58      1.0000 0.12290  0.76355  0.09329  Biso   1.000  H
  H59      1.0000 0.01868  0.73433  0.90631  Biso   1.000  H
  H60      1.0000 0.09329  0.76355  0.87710  Biso   1.000  H
  H61      1.0000 0.09329  0.26355  0.62290  Biso   1.000  H
  H62      1.0000 0.01868  0.23433  0.59369  Biso   1.000  H
  H63      1.0000 0.98132  0.23433  0.59369  Biso   1.000  H
  H64      1.0000 0.90671  0.26355  0.62290  Biso   1.000  H
  H65      1.0000 0.87710  0.90671  0.76355  Biso   1.000  H
  H66      1.0000 0.90631  0.98132  0.73433  Biso   1.000  H
  H67      1.0000 0.12290  0.76355  0.90671  Biso   1.000  H
  H68      1.0000 0.09369  0.73433  0.98132  Biso   1.000  H
  H69      1.0000 0.40631  0.98132  0.76567  Biso   1.000  H
  H70      1.0000 0.37710  0.90671  0.73645  Biso   1.000  H
  H71      1.0000 0.37710  0.09329  0.73645  Biso   1.000  H
  H72      1.0000 0.40631  0.01868  0.76567  Biso   1.000  H
  H73      1.0000 0.09369  0.26567  0.98132  Biso   1.000  H
  H74      1.0000 0.12290  0.23645  0.90671  Biso   1.000  H
  H75      1.0000 0.23433  0.59369  0.98132  Biso   1.000  H
  H76      1.0000 0.26355  0.62290  0.90671  Biso   1.000  H
  H77      1.0000 0.90671  0.76355  0.87710  Biso   1.000  H
  H78      1.0000 0.98132  0.73433  0.90631  Biso   1.000  H
  H79      1.0000 0.09329  0.73645  0.37710  Biso   1.000  H
  H80      1.0000 0.01868  0.76567  0.40631  Biso   1.000  H
  H81      1.0000 0.98132  0.76567  0.40631  Biso   1.000  H
  H82      1.0000 0.90671  0.73645  0.37710  Biso   1.000  H
  H83      1.0000 0.87710  0.09329  0.23645  Biso   1.000  H
  H84      1.0000 0.90631  0.01868  0.26567  Biso   1.000  H
  H85      1.0000 0.90631  0.98132  0.26567  Biso   1.000  H
  H86      1.0000 0.87710  0.90671  0.23645  Biso   1.000  H
  H87      1.0000 0.90671  0.87710  0.23645  Biso   1.000  H
  H88      1.0000 0.98132  0.90631  0.26567  Biso   1.000  H
  H89      1.0000 0.01868  0.90631  0.26567  Biso   1.000  H
  H90      1.0000 0.09329  0.87710  0.23645  Biso   1.000  H
  H91      1.0000 0.98132  0.09369  0.26567  Biso   1.000  H
  H92      1.0000 0.90671  0.12290  0.23645  Biso   1.000  H
  H93      1.0000 0.90671  0.26355  0.37710  Biso   1.000  H
  H94      1.0000 0.98132  0.23433  0.40631  Biso   1.000  H
  H95      1.0000 0.01868  0.23433  0.40631  Biso   1.000  H
  H96      1.0000 0.09329  0.26355  0.37710  Biso   1.000  H
  H97      1.0000 0.09329  0.12290  0.23645  Biso   1.000  H
  H98      1.0000 0.01868  0.09369  0.26567  Biso   1.000  H
  H99      1.0000 0.90671  0.37710  0.73645  Biso   1.000  H
  H100     1.0000 0.98132  0.40631  0.76567  Biso   1.000  H
  H101     1.0000 0.01868  0.40631  0.76567  Biso   1.000  H
  H102     1.0000 0.09329  0.37710  0.73645  Biso   1.000  H
  H103     1.0000 0.09329  0.87710  0.76355  Biso   1.000  H
  H104     1.0000 0.01868  0.90631  0.73433  Biso   1.000  H
  H105     1.0000 0.98132  0.90631  0.73433  Biso   1.000  H
  H106     1.0000 0.90671  0.87710  0.76355  Biso   1.000  H
  H107     1.0000 0.73645  0.09329  0.62290  Biso   1.000  H
  H108     1.0000 0.76567  0.01868  0.59369  Biso   1.000  H
  H109     1.0000 0.76567  0.98132  0.59369  Biso   1.000  H
  H110     1.0000 0.73645  0.90671  0.62290  Biso   1.000  H
  H111     1.0000 0.01868  0.76567  0.59369  Biso   1.000  H
  H112     1.0000 0.09329  0.73645  0.62290  Biso   1.000  H
  H113     1.0000 0.76567  0.59369  0.01868  Biso   1.000  H
  H114     1.0000 0.73645  0.62290  0.09329  Biso   1.000  H
  H115     1.0000 0.12290  0.09329  0.76355  Biso   1.000  H
  H116     1.0000 0.09369  0.01868  0.73433  Biso   1.000  H
  H117     1.0000 0.73645  0.90671  0.37710  Biso   1.000  H
  H118     1.0000 0.76567  0.98132  0.40631  Biso   1.000  H
  H119     1.0000 0.76567  0.01868  0.40631  Biso   1.000  H
  H120     1.0000 0.73645  0.09329  0.37710  Biso   1.000  H
  H121     1.0000 0.26355  0.09329  0.37710  Biso   1.000  H
  H122     1.0000 0.23433  0.01868  0.40631  Biso   1.000  H
  H123     1.0000 0.23433  0.98132  0.40631  Biso   1.000  H
  H124     1.0000 0.26355  0.90671  0.37710  Biso   1.000  H
  H125     1.0000 0.26355  0.90671  0.62290  Biso   1.000  H
  H126     1.0000 0.23433  0.98132  0.59369  Biso   1.000  H
  H127     1.0000 0.23433  0.01868  0.59369  Biso   1.000  H
  H128     1.0000 0.26355  0.09329  0.62290  Biso   1.000  H
  H129     1.0000 0.37710  0.73645  0.90671  Biso   1.000  H
  H130     1.0000 0.40631  0.76567  0.98132  Biso   1.000  H
  H131     1.0000 0.40631  0.76567  0.01868  Biso   1.000  H
  H132     1.0000 0.37710  0.73645  0.09329  Biso   1.000  H
  H133     1.0000 0.59369  0.01868  0.76567  Biso   1.000  H
  H134     1.0000 0.62290  0.09329  0.73645  Biso   1.000  H
  H135     1.0000 0.62290  0.90671  0.73645  Biso   1.000  H
  H136     1.0000 0.59369  0.98132  0.76567  Biso   1.000  H
  H137     1.0000 0.59369  0.98132  0.23433  Biso   1.000  H
  H138     1.0000 0.62290  0.90671  0.26355  Biso   1.000  H
  H139     1.0000 0.62290  0.09329  0.26355  Biso   1.000  H
  H140     1.0000 0.59369  0.01868  0.23433  Biso   1.000  H
  H141     1.0000 0.73433  0.98132  0.90631  Biso   1.000  H
  H142     1.0000 0.76355  0.90671  0.87710  Biso   1.000  H
  H143     1.0000 0.62290  0.73645  0.09329  Biso   1.000  H
  H144     1.0000 0.59369  0.76567  0.01868  Biso   1.000  H
  H145     1.0000 0.59369  0.76567  0.98132  Biso   1.000  H
  H146     1.0000 0.62290  0.73645  0.90671  Biso   1.000  H
  H147     1.0000 0.09329  0.37710  0.26355  Biso   1.000  H
  H148     1.0000 0.01868  0.40631  0.23433  Biso   1.000  H
  H149     1.0000 0.73433  0.01868  0.09369  Biso   1.000  H
  H150     1.0000 0.76355  0.09329  0.12290  Biso   1.000  H
  H151     1.0000 0.62290  0.26355  0.90671  Biso   1.000  H
  H152     1.0000 0.59369  0.23433  0.98132  Biso   1.000  H
  H153     1.0000 0.59369  0.23433  0.01868  Biso   1.000  H
  H154     1.0000 0.62290  0.26355  0.09329  Biso   1.000  H
  H155     1.0000 0.76355  0.90671  0.12290  Biso   1.000  H
  H156     1.0000 0.73433  0.98132  0.09369  Biso   1.000  H
  H157     1.0000 0.76355  0.09329  0.87710  Biso   1.000  H
  H158     1.0000 0.73433  0.01868  0.90631  Biso   1.000  H
  H159     1.0000 0.98132  0.40631  0.23433  Biso   1.000  H
  H160     1.0000 0.90671  0.37710  0.26355  Biso   1.000  H
  H161     1.0000 0.09329  0.76355  0.12290  Biso   1.000  H
  H162     1.0000 0.01868  0.73433  0.09369  Biso   1.000  H
  H163     1.0000 0.98132  0.73433  0.09369  Biso   1.000  H
  H164     1.0000 0.90671  0.76355  0.12290  Biso   1.000  H
  H165     1.0000 0.76355  0.12290  0.09329  Biso   1.000  H
  H166     1.0000 0.73433  0.09369  0.01868  Biso   1.000  H
  H167     1.0000 0.73433  0.09369  0.98132  Biso   1.000  H
  H168     1.0000 0.76355  0.12290  0.90671  Biso   1.000  H
  H169     1.0000 0.37710  0.26355  0.09329  Biso   1.000  H
  H170     1.0000 0.40631  0.23433  0.01868  Biso   1.000  H
  H171     1.0000 0.40631  0.23433  0.98132  Biso   1.000  H
  H172     1.0000 0.37710  0.26355  0.90671  Biso   1.000  H
  H173     1.0000 0.09369  0.98132  0.73433  Biso   1.000  H
  H174     1.0000 0.12290  0.90671  0.76355  Biso   1.000  H
  H175     1.0000 0.76355  0.87710  0.90671  Biso   1.000  H
  H176     1.0000 0.73433  0.90631  0.98132  Biso   1.000  H
  H177     1.0000 0.90671  0.62290  0.26355  Biso   1.000  H
  H178     1.0000 0.98132  0.59369  0.23433  Biso   1.000  H
  H179     1.0000 0.01868  0.59369  0.23433  Biso   1.000  H
  H180     1.0000 0.09329  0.62290  0.26355  Biso   1.000  H
  H181     1.0000 0.01868  0.26567  0.09369  Biso   1.000  H
  H182     1.0000 0.09329  0.23645  0.12290  Biso   1.000  H
  H183     1.0000 0.26355  0.37710  0.90671  Biso   1.000  H
  H184     1.0000 0.23433  0.40631  0.98132  Biso   1.000  H
  H185     1.0000 0.09329  0.62290  0.73645  Biso   1.000  H
  H186     1.0000 0.01868  0.59369  0.76567  Biso   1.000  H
  H187     1.0000 0.98132  0.59369  0.76567  Biso   1.000  H
  H188     1.0000 0.90671  0.62290  0.73645  Biso   1.000  H
  H189     1.0000 0.73645  0.37710  0.09329  Biso   1.000  H
  H190     1.0000 0.76567  0.40631  0.01868  Biso   1.000  H
  H191     1.0000 0.76567  0.40631  0.98132  Biso   1.000  H
  H192     1.0000 0.73645  0.37710  0.90671  Biso   1.000  H
