
##########################################################################
#               Crystallographic Information Format file
#               Produced by PyCifRW module
#
#  This is a CIF file.  CIF has been adopted by the International
#  Union of Crystallography as the standard for data archiving and
#  transmission.
#
#  For information on this file format, follow the CIF links at
#  http://www.iucr.org
##########################################################################

data_e:\reddy\znbttb~1\y

_symmetry_cell_setting                  Triclinic
loop_
  _symmetry_equiv_pos_as_xyz
         'x, y, z'           
         '-x, -y, -z' 
_cell_length_a                          15.8225
_cell_length_b                          16.8196
_cell_length_c                          28.476
_cell_angle_alpha                       96.7
_cell_angle_beta                        100.221
_cell_angle_gamma                       109.597
_cell_volume                            6898.0
loop_
  _atom_site_label
  _atom_site_type_symbol
  _atom_site_fract_x
  _atom_site_fract_y
  _atom_site_fract_z
         Zn        Zn        0.28817   -0.59183  0.11744   
         O         O         0.2847    -0.5101   0.08321   
         C         C         0.318     -0.2175   -0.0211   
         O         O         -0.3707   -1.229    -0.4821   
         Zn        Zn        0.35296   -0.40507  0.21057   
         O         O         0.3606    -0.383    0.1481    
         C         C         0.3054    -0.2504   -0.0708   
         Zn        Zn        0.27459   -0.76494  -0.22552  
         O         O         0.4172    0.1488    -0.205    
         C         C         0.312     -0.1891   -0.0963   
         H         H         0.3071    -0.2025   -0.1303   
         Zn        Zn        0.07312   -0.74062  -0.28924  
         O         O         0.2891    0.1568    -0.1901   
         C         C         0.3262    -0.1029   -0.0748   
         Zn        Zn        -0.17202  -0.97452  -0.31032  
         O         O         0.1488    -0.6533   -0.2234   
         C         C         0.3345    -0.0704   -0.0248   
         Zn        Zn        -0.25754  -1.17382  -0.40692  
         O         O         0.2866    -0.6461   -0.1888   
         C         C         0.331     -0.1266   0.0006    
         H         H         0.3365    -0.1118   0.0345    
         O         O         0.2917    0.296     0.0857    
         C         C         0.3153    -0.2745   0.0096    
         O         O         0.4138    0.3577    0.0611    
         C         C         0.2487    -0.3599   -0.0034   
         H         H         0.2043    -0.3794   -0.0335   
         O         O         -0.1795   -0.9468   -0.36795  
         C         C         0.2519    -0.4089   0.0275    
         H         H         0.211     -0.4671   0.0212    
         O         O         -0.2222   -1.0741   -0.43095  
         C         C         0.3197    -0.3717   0.0715    
         O         O         -0.0047   -0.3428   -0.679    
         C         C         0.3847    -0.2848   0.0852    
         H         H         0.4266    -0.2653   0.1161    
         O         O         -0.1469   -0.3428   -0.6766   
         C         C         0.3851    -0.2355   0.0558    
         H         H         0.427     -0.1776   0.0625    
         O         O         -0.0474   -1.1404   -0.6583   
         C         C         0.3284    -0.0448   -0.1037   
         O         O         -0.162    -1.1716   -0.7182   
         C         C         0.2679    -0.0029   -0.1069   
         H         H         0.2201    -0.0159   -0.0898   
         O         O         -0.2927   -0.3145   -0.4306   
         C         C         0.2769    0.0556    -0.134    
         H         H         0.2379    0.088     -0.137    
         O         O         -0.1759   -0.2351   -0.445    
         C         C         0.3468    0.0666    -0.1579   
         O         O         -0.0694   -1.0103   -0.2917   
         C         C         0.4102    0.0276    -0.1543   
         H         H         0.4594    0.0417    -0.1704   
         O         O         -0.1653   -1.1465   -0.3451   
         C         C         0.3986    -0.028    -0.1281   
         H         H         0.4387    -0.0593   -0.1249   
         O         O         0.6327    -1.4538   -0.1835   
         C         C         0.2863    -0.3447   -0.0996   
         O         O         0.522     -1.5862   -0.2289   
         C         C         0.196     -0.4035   -0.1295   
         H         H         0.1448    -0.3858   -0.1305   
         O         O         -0.1778   -1.378    -0.1398   
         C         C         0.1802    -0.4896   -0.1584   
         H         H         0.1203    -0.5224   -0.178    
         O         O         -0.2154   -1.5205   -0.187    
         C         C         0.2465    -0.5224   -0.1579   
         O         O         0.7032    -1.0529   -0.3126   
         C         C         0.3368    -0.4652   -0.1305   
         H         H         0.3872    -0.4838   -0.1304   
         O         O         0.6399    -1.1747   -0.3773   
         C         C         0.3552    -0.3784   -0.1022   
         H         H         0.4166    -0.3444   -0.0851   
         O         O         -0.1644   -0.8712   -0.2583   
         C         C         0.3441    0.0241    0.0009    
         O         O         -0.0362   -0.8083   -0.2683   
         C         C         0.4146    0.0995    -0.0009   
         H         H         0.4626    0.0959    -0.0158   
         O         O         -0.0154   -0.4733   -0.0467   
         C         C         0.4164    0.1842    0.0195    
         H         H         0.4653    0.2328    0.0159    
         O         O         -0.0102   -0.5827   -0.0144   
         C         C         0.353     0.1999    0.0438    
         O         O         0.3721    -0.2767   0.2457    
         C         C         0.2846    0.1235    0.0454    
         H         H         0.2371    0.1265    0.061     
         O         O         0.3367    -0.4302   0.2764    
         C         C         0.2815    0.0393    0.0247    
         H         H         0.2319    -0.0092   0.0278    
         O         O         0.3676    -0.7442   -0.2618   
         C         C         0.3241    -0.4253   0.1045    
         C         C         0.3509    0.1289    -0.1866   
         C         C         0.2291    -0.6131   -0.1917   
         C         C         0.355     0.2901    0.0636    
         C         C         -0.154    -0.7677   -0.5309   
         C         C         -0.1388   -0.7869   -0.5763   
         C         C         -0.1262   -0.7222   -0.5971   
         H         H         -0.1103   -0.7268   -0.6277   
         C         C         -0.1343   -0.6406   -0.5775   
         C         C         -0.155    -0.6226   -0.5322   
         C         C         -0.1659   -0.6887   -0.5113   
         H         H         -0.1829   -0.6857   -0.4809   
         C         C         -0.1639   -0.8311   -0.5031   
         C         C         -0.2169   -0.9222   -0.5227   
         H         H         -0.2446   -0.9416   -0.5565   
         C         C         -0.2253   -0.9753   -0.4939   
         H         H         -0.2568   -1.0355   -0.5043   
         C         C         -0.1828   -0.9354   -0.4443   
         C         C         -0.1261   -0.8428   -0.4233   
         H         H         -0.0982   -0.8236   -0.3896   
         C         C         -0.1173   -0.7923   -0.4523   
         H         H         -0.0826   -0.7325   -0.4421   
         C         C         -0.117    -0.5729   -0.6011   
         C         C         -0.0351   -0.5399   -0.6123   
         H         H         0.011     -0.5638   -0.6046   
         C         C         -0.0199   -0.473    -0.6345   
         H         H         0.0373    -0.4473   -0.6429   
         C         C         -0.0914   -0.4417   -0.6449   
         C         C         -0.173    -0.4747   -0.6336   
         H         H         -0.2197   -0.4518   -0.6422   
         C         C         -0.1872   -0.5375   -0.6112   
         H         H         -0.2435   -0.5604   -0.6014   
         C         C         -0.13     -0.8731   -0.6022   
         C         C         -0.0524   -0.8909   -0.5868   
         H         H         -0.0034   -0.8533   -0.561    
         C         C         -0.048    -0.9705   -0.6118   
         H         H         0.007     -0.9811   -0.6012   
         C         C         -0.1182   -1.0349   -0.651    
         C         C         -0.1953   -1.019    -0.6679   
         H         H         -0.2424   -1.0564   -0.6946   
         C         C         -0.2025   -0.9383   -0.642    
         H         H         -0.2581   -0.9286   -0.6521   
         C         C         -0.1725   -0.5432   -0.509    
         C         C         -0.1058   -0.4562   -0.4985   
         H         H         -0.0474   -0.4467   -0.5059   
         C         C         -0.1249   -0.3808   -0.4766   
         H         H         -0.0785   -0.3252   -0.4709   
         C         C         -0.2027   -0.3889   -0.4652   
         C         C         -0.2722   -0.4783   -0.474    
         H         H         -0.329    -0.4873   -0.4648   
         C         C         -0.2546   -0.5528   -0.4966   
         H         H         -0.3011   -0.6084   -0.5027   
         C         C         -0.1961   -0.9927   -0.4123   
         C         C         -0.0795   -0.3676   -0.6686   
         C         C         -0.1115   -1.1233   -0.6774   
         C         C         -0.226    -0.3104   -0.4446   
         C         C         0.3223    -1.2504   -0.2664   
         C         C         0.3043    -1.3208   -0.2477   
         C         C         0.2225    -1.3496   -0.2353   
         H         H         0.2084    -1.4006   -0.2221   
         C         C         0.1566    -1.3111   -0.2401   
         C         C         0.1741    -1.2417   -0.2591   
         C         C         0.2576    -1.2117   -0.2708   
         H         H         0.2725    -1.1598   -0.2831   
         C         C         0.1045    -1.2029   -0.2704   
         C         C         0.0146    -1.2592   -0.3004   
         H         H         0.0006    -1.319    -0.31     
         C         C         -0.0476   -1.2234   -0.3141   
         H         H         -0.1068   -1.2563   -0.3344   
         C         C         -0.0187   -1.1276   -0.2955   
         C         C         0.0677    -1.0735   -0.2665   
         H         H         0.0818    -1.0138   -0.2561   
         C         C         0.1301    -1.1112   -0.2543   
         H         H         0.1902    -1.0776   -0.2353   
         C         C         0.3703    -1.3643   -0.2388   
         C         C         0.3348    -1.4637   -0.2559   
         H         H         0.2726    -1.4949   -0.2729   
         C         C         0.3942    -1.5043   -0.246    
         H         H         0.3758    -1.5647   -0.256    
         C         C         0.4873    -1.4519   -0.2194   
         C         C         0.5141    -1.3684   -0.1973   
         H         H         0.5723    -1.3423   -0.1749   
         C         C         0.4568    -1.318    -0.2068   
         H         H         0.4759    -1.2589   -0.1927   
         C         C         0.0747    -1.3421   -0.2218   
         C         C         0.0193    -1.4353   -0.2365   
         H         H         0.0372    -1.4718   -0.2574   
         C         C         -0.0576   -1.4672   -0.2194   
         H         H         -0.0959   -1.5264   -0.2277   
         C         C         -0.078    -1.4048   -0.1874   
         C         C         -0.0209   -1.3119   -0.1712   
         H         H         -0.0357   -1.2754   -0.1486   
         C         C         0.0523    -1.2826   -0.1902   
         H         H         0.0893    -1.2231   -0.183    
         C         C         0.4063    -1.2189   -0.2838   
         C         C         0.4279    -1.2813   -0.3146   
         H         H         0.3918    -1.3409   -0.3212   
         C         C         0.5014    -1.2495   -0.3331   
         H         H         0.5165    -1.2862   -0.3554   
         C         C         0.5595    -1.1572   -0.3186   
         C         C         0.5501    -1.1085   -0.2787   
         H         H         0.5967    -1.0549   -0.2628   
         C         C         0.4705    -1.1413   -0.2633   
         H         H         0.4604    -1.1079   -0.2371   
         C         C         -0.0894   -1.0911   -0.312    
         C         C         0.5491    -1.5013   -0.2101   
         C         C         -0.1665   -1.4393   -0.171    
         C         C         0.6392    -1.1279   -0.3387   
         C         C         -0.0736   -0.7407   -0.1974   
         C         C         0.0117    -0.7062   -0.1615   
         H         H         0.0611    -0.7226   -0.1679   
         C         C         0.029     -0.646    -0.1145   
         H         H         0.0881    -0.6254   -0.0928   
         C         C         -0.0413   -0.6195   -0.102    
         C         C         -0.1148   -0.6385   -0.1426   
         H         H         -0.1558   -0.6088   -0.1399   
         C         C         -0.1363   -0.6993   -0.189    
         H         H         -0.1911   -0.7105   -0.2129   
         C         C         -0.0905   -0.8107   -0.2437   
         C         C         -0.0248   -0.5552   -0.0545 
